
**** 04/03/20 00:28:34 ****** PSpice 17.2.0 (March 2016) ****** ID# 0 ********

 ** Profile: "SCHEMATIC1-bias"  [ C:\USERS\EMANU\DESKTOP\DCE-GRUPO10\REALIMENTADOR\PSpice\realimentador-pspicefiles\schematic1\bias.s


 ****     CIRCUIT DESCRIPTION


******************************************************************************




** Creating circuit file "bias.cir" 
** WARNING: THIS AUTOMATICALLY GENERATED FILE MAY BE OVERWRITTEN BY SUBSEQUENT SIMULATIONS

*Libraries: 
* Profile Libraries :
* Local Libraries :
.LIB "../../../lib/ucc20520_pspice_trans/ucc20520_trans.lib" 
* From [PSPICE NETLIST] section of D:\Cadence\SPB_Data\cdssetup\OrCAD_PSpice\17.2.0\PSpice.ini file:
.lib "nom.lib" 

*Analysis directives: 
.TRAN  0 1m 0 SKIPBP 
.OPTIONS ADVCONV
.OPTIONS SOLVER= 1
.OPTIONS METHOD= Default
.OPTIONS THREADS= 12
.AUTOCONVERGE ITL1=1000 ITL2=1000 ITL4=1000 RELTOL=0.05 ABSTOL=1.0E-6 VNTOL=.001 PIVTOL=1.0E-10 
.PROBE64 V(alias(*)) I(alias(*)) W(alias(*)) D(alias(*)) NOISE(alias(*)) 
.INC "..\SCHEMATIC1.net" 



**** INCLUDING SCHEMATIC1.net ****
* source REALIMENTADOR
R_R1         0 N14471  2.2k TC=0,0 
C_C1         0 N14471  2.2n  TC=0,0 
C_C2         VEE N14815  10u  TC=0,0 
C_C3         VEE N14815  10u  TC=0,0 
C_C4         VEE N14815  220n  TC=0,0 
V_V1         N14815 VEE 12Vdc
R_R2         N14815 N15120  10 TC=0,0 
C_C5         VS N15021  1u  TC=0,0 
C_C6         VS N15021  100n  TC=0,0 
D_D2         N15120 N15021 MURS120T3G 
V_V2         N15452 0  
+PULSE 0 5 0 1p 1p 2.5u 5u
X_M1         VCC N15951 VS PHB27NQ10T/PLP
X_M2         VS N15912 VEE PHB27NQ10T/PLP
R_R3         LO N15912  3.3 TC=0,0 
R_R4         HO N15951  3.3 TC=0,0 
R_R5         N16045 N15951  1.2 TC=0,0 
R_R6         N16029 N15912  1.2 TC=0,0 
C_C7         VS N15951  1n  TC=0,0 
C_C8         VEE N15912  1n  TC=0,0 
D_D3         N16045 HO MURS320T3G 
D_D4         N16029 LO MURS320T3G 
L_L1         0 N16258  33u  
C_C9         0 N16258  330n  TC=0,0 
R_R7         0 VS  8 TC=0,0 
V_V3         VCC 0 30Vdc
V_V4         0 VEE 30Vdc
V_V5         5V 0 5Vdc
X_U1         0 N14471 0 N18435 N18431 N18439 N18443 HO LO 0 5V 5V N15021 N14815
+  VS VEE UCC20520_TRANS
R_R8         N18443 0  1 TC=0,0 
R_R9         N18439 0  1 TC=0,0 
R_R10         0 N18431  1 TC=0,0 
R_R11         0 N18435  1 TC=0,0 

**** RESUMING bias.cir ****
.END

**** 04/03/20 00:28:34 ****** PSpice 17.2.0 (March 2016) ****** ID# 0 ********

 ** Profile: "SCHEMATIC1-bias"  [ C:\USERS\EMANU\DESKTOP\DCE-GRUPO10\REALIMENTADOR\PSpice\realimentador-pspicefiles\schematic1\bias.s


 ****     Diode MODEL PARAMETERS


******************************************************************************




               MURS120T3G      MURS320T3G      X_M1.Dbody      X_M2.Dbody      
          IS    7.945600E-12   23.789000E-09   10.000000E-15   10.000000E-15 
           N    1.0395          1.6119           .85             .85         
         ISR    5.067500E-09   19.406000E-09                                 
          NR    4.985           3.5766                                       
         IKF     .027067       61.67            1.000000E+03    1.000000E+03 
          BV  200             200             100             100            
         IBV    2.000000E-06  800.000000E-09  250.000000E-06  250.000000E-06 
          RS     .019342        8.451400E-03    8.300000E-03    8.300000E-03 
          TT   35.000000E-06   35.000000E-09   60.000000E-09   60.000000E-09 
         CJO   46.732000E-12  137.580000E-12                                 
          VJ    3.3357          1.4981           .4              .4          
           M     .86683          .49862                                      
          EG    1.0434          1.0274                                       
         XTI     .5             5.000000E-09                                 


               X_U1.X_U48.dd   X_U1.X_U40.dd   X_U1.X_U47.dd   X_U1.X_U57.dd   
          IS   10.000000E-15   10.000000E-15   10.000000E-15   10.000000E-15 
           N    1.000000E-03    1.000000E-03    1.000000E-03    1.000000E-03 


               X_U1.X_U55.dd   X_U1.X_U33.dd   X_U1.X_U37.dd   X_U1.X_U38.dd   
          IS   10.000000E-15   10.000000E-15   10.000000E-15   10.000000E-15 
           N    1.000000E-03    1.000000E-03    1.000000E-03    1.000000E-03 


               X_U1.X_U35.dd   X_U1.X_U56.dd   X_U1.X_U59.dd   X_U1.X_U60.dd   
          IS   10.000000E-15   10.000000E-15   10.000000E-15   10.000000E-15 
           N    1.000000E-03    1.000000E-03    1.000000E-03    1.000000E-03 


               X_U1.X_U39.dd   
          IS   10.000000E-15 
           N    1.000000E-03 


**** 04/03/20 00:28:34 ****** PSpice 17.2.0 (March 2016) ****** ID# 0 ********

 ** Profile: "SCHEMATIC1-bias"  [ C:\USERS\EMANU\DESKTOP\DCE-GRUPO10\REALIMENTADOR\PSpice\realimentador-pspicefiles\schematic1\bias.s


 ****     MOSFET MODEL PARAMETERS


******************************************************************************




               X_M1.MOST1      X_M1.MOST2      X_M2.MOST1      X_M2.MOST2      
               NMOS            NMOS            NMOS            NMOS            
       LEVEL    3               3               3               3            
           L  300.000000E-09  300.000000E-09  300.000000E-09  300.000000E-09 
           W     .1              .1              .1              .1          
         VTO    3.73           -2.7             3.73           -2.7          
          KP   40.800000E-06   40.800000E-06   40.800000E-06   40.800000E-06 
       GAMMA    0               0               0               0            
         PHI     .6              .6              .6              .6          
      LAMBDA    0               0               0               0            
          RD                    1.000000E+03                    1.000000E+03 
          RS                    1.000000E+03                    1.000000E+03 
          IS    0               0               0               0            
          JS    0               0               0               0            
          PB     .8              .8              .8              .8          
        PBSW     .8              .8              .8              .8          
          CJ    0               0               0               0            
        CJSW    0               0               0               0            
        CGSO    0               0               0               0            
        CGDO    0               0               0               0            
        CGBO    0               0               0               0            
         NFS    1.100000E+12                    1.100000E+12                 
         TOX  100.000000E-09  100.000000E-09  100.000000E-09  100.000000E-09 
          XJ  500.000000E-09  500.000000E-09  500.000000E-09  500.000000E-09 
          UO  650             650             650             650            
       UCRIT   10.000000E+03   10.000000E+03   10.000000E+03   10.000000E+03 
       DELTA     .1              .1              .1              .1          
         ETA  100.000000E-06  100.000000E-06  100.000000E-06  100.000000E-06 
       KAPPA     .1              .1              .1              .1          
      DIOMOD    1               1               1               1            
         VFB    0               0               0               0            
        LETA    0               0               0               0            
        WETA    0               0               0               0            
          U0    0               0               0               0            
        TEMP    0               0               0               0            
         VDD    5               5               5               5            
       XPART    0               0               0               0            


               X_U1.X_M13._mod X_U1.X_M15._mod X_U1.X_M14._mod X_U1.X_M12._mod 
               NMOS            NMOS            NMOS            NMOS            
       LEVEL    1               1               1               1            
           L   10.000000E-09   10.000000E-09   10.000000E-09   10.000000E-09 
           W    2.4             2.4              .285            .285        
         VTO    0               0               0               0            
          KP    2.000000E-09    2.000000E-09    2.000000E-09    2.000000E-09 
       GAMMA    0               0               0               0            
         PHI     .6              .6              .6              .6          
      LAMBDA    0               0               0               0            
          IS   10.000000E-15   10.000000E-15   10.000000E-15   10.000000E-15 
          JS    0               0               0               0            
           N    2.5             2.5             2.5             2.5          
          PB     .8              .8              .8              .8          
        PBSW     .8              .8              .8              .8          
          CJ    0               0               0               0            
        CJSW    0               0               0               0            
        CGSO    0               0               0               0            
        CGDO    0               0               0               0            
        CGBO    0               0               0               0            
         TOX    0               0               0               0            
          XJ    0               0               0               0            
       UCRIT   10.000000E+03   10.000000E+03   10.000000E+03   10.000000E+03 
      DIOMOD    1               1               1               1            
         VFB    0               0               0               0            
        LETA    0               0               0               0            
        WETA    0               0               0               0            
          U0    0               0               0               0            
        TEMP    0               0               0               0            
         VDD    5               5               5               5            
       XPART    0               0               0               0            


**** 04/03/20 00:28:34 ****** PSpice 17.2.0 (March 2016) ****** ID# 0 ********

 ** Profile: "SCHEMATIC1-bias"  [ C:\USERS\EMANU\DESKTOP\DCE-GRUPO10\REALIMENTADOR\PSpice\realimentador-pspicefiles\schematic1\bias.s


 ****     Resistor MODEL PARAMETERS


******************************************************************************




               X_M1.Rtemp      X_M2.Rtemp      
           R    1               1            
         TC1    6.810000E-03    6.810000E-03 
         TC2   28.600000E-06   28.600000E-06 


**** 04/03/20 00:28:34 ****** PSpice 17.2.0 (March 2016) ****** ID# 0 ********

 ** Profile: "SCHEMATIC1-bias"  [ C:\USERS\EMANU\DESKTOP\DCE-GRUPO10\REALIMENTADOR\PSpice\realimentador-pspicefiles\schematic1\bias.s


 ****     Voltage Controlled Switch MODEL PARAMETERS


******************************************************************************




               X_U1.X_S1._S1   X_U1.X_S6._S6   X_U1.X_S3._S3   X_U1.X_S4._S4   
         RON     .01            5.000000E-03   25               5.000000E-03 
        ROFF    1.000000E+09    1.000000E+06    1.000000E+06    1.000000E+06 
         VON    4               4.5             4.5             4.5          
        VOFF    1                .5              .5              .5          


               X_U1.X_S5._S5   X_U1.X_S2._S2   
         RON   25                .01         
        ROFF    1.000000E+06    1.000000E+09 
         VON    4.5             4            
        VOFF     .5             1            

Convergence problem in transient analysis at Time =  156.3E-18
         Time step =  156.3E-18, minimum allowable step size =  1.000E-15

  These voltages failed to converge:

    V(N14471)                 =    2.841uV  \         0V
    V(VEE)                    =    -30.00V  \         0V
    V(N14815)                 =    -18.00V  \         0V
    V(N15120)                 =    -8.011V  \         0V
    V(VS)                     =    -7.991V  \         0V
    V(N15021)                 =    -7.991V  \         0V
    V(N15452)                 =    6.250mV  \         0V
    V(LO)                     =    -30.00V  \         0V
    V(N15912)                 =    -30.00V  \         0V
    V(HO)                     =    -7.991V  \         0V
    V(N15951)                 =    -7.991V  \         0V
    V(N16045)                 =    -7.991V  \         0V
    V(N16029)                 =    -30.00V  \         0V
    V(VCC)                    =     30.00V  \         0V
    V(5V)                     =     5.000V  \         0V
    V(X_M1.11)                =     11.67V  \         0V
    V(X_M1.22)                =     11.67V  \         0V
    V(X_M1.33)                =     11.67V  \         0V
    V(X_M1.6)                 =     11.67V  \         0V
    V(X_M1.4)                 =     11.67V  \         0V
    V(X_M1.5)                 =     11.67V  \         0V
    V(X_M1.12)                =     11.67V  \         0V
    V(X_M2.11)                =    -18.63V  \         0V
    V(X_M2.22)                =    -18.63V  \         0V
    V(X_M2.33)                =    -18.63V  \         0V
    V(X_M2.6)                 =    -18.63V  \         0V
    V(X_M2.4)                 =    -18.63V  \         0V
    V(X_M2.5)                 =    -18.63V  \         0V
    V(X_M2.12)                =    -18.63V  \         0V
    V(X_U1.N16672784)         =    -30.00V  \         0V
    V(X_U1.PWMIN)             =     2.250V  \         0V
    V(X_U1.N16672306)         =   -2.250uV  \         0V
    V(X_U1.N17110038)         =    -7.991V  \         0V
    V(X_U1.N16671640)         =   -5.000MV  \         0V
    V(X_U1.N16672106)         =     1.000V  \         0V
    V(X_U1.UVLO1)             =   -18.00MV  \         0V
    V(X_U1.VCCI_INT)          =     5.000V  \         0V
    V(X_U1.N16669842)         =     3.600V  \         0V
    V(X_U1.UVLO2)             =  -113.33MV  \         0V
    V(X_U1.N167201110)        =  -113.33MV  \         0V
    V(X_U1.N17127259)         =    -7.991V  \         0V
    V(X_U1.UVLO2_DELAYED)     =   -1.964mV  \         0V
    V(X_U1.UVLO1_DELAYED)     =  -433.13uV  \         0V
    V(X_U1.N16672776)         =    -18.00V  \         0V
    V(X_U1.N16668898)         =     22.67V  \         0V
    V(X_U1.UVLO2B)            =  -113.33MV  \         0V
    V(X_U1.UVLO2B_DELAYED)    =   -1.964mV  \         0V
    V(X_U1.N16671580)         =     2.000V  \         0V
    V(X_U1.DEAD_THRESH)       =     5.000V  \         0V
    V(X_U1.N167208610)        =   -18.00MV  \         0V
    V(X_U1.N16671236)         =     9.75uV  \         0V
    V(X_U1.NO_DT)             =     5.000V  \         0V
    V(X_U1.N16671702)         =    -6.250V  \         0V
    V(X_U1.N16670228)         =   -5.000MV  \         0V
    V(X_U1.N16670672)         =     1.000V  \         0V
    V(X_U1.N16670896)         =     22.67V  \         0V
    V(X_U1.N16670888)         =     8.500V  \         0V
    V(X_U1.N17198437)         =   -141.67V  \         0V
    V(X_U1.N17110021)         =     5.000V  \         0V
    V(X_U1.N16671468)         =    -6.250V  \         0V
    V(X_U1.N17167704)         =    -30.00V  \         0V
    V(X_U1.N17201974)         =    -22.50V  \         0V
    V(X_U1.N16671044)         =     12.00V  \         0V
    V(X_U1.N16669834)         =     2.700V  \         0V
    V(X_U1.N16671166)         =     11.25V  \         0V
    V(X_U1.PWMINB)            =     1.000V  \         0V
    V(X_U1.N16669308)         =    -7.991V  \         0V
    V(X_U1.N16970878)         =    -7.991V  \         0V
    V(X_U1.N16673492)         =   -2.250uV  \         0V
    V(X_U1.N16673432)         =     1.800V  \         0V
    V(X_U1.N17051757)         =     5.000V  \         0V
    V(X_U1.N16672968)         =    -30.00V  \         0V
    V(X_U1.N16670816)         =    2.841uV  \         0V
    V(X_U1.N16672276)         =     1.800V  \         0V
    V(X_U1.N17051771)         =    -30.00V  \         0V
    V(X_U1.N16670154)         =     2.000V  \         0V
    V(X_U1.N17196585)         =   -141.67V  \         0V
    V(X_U1.N167216030)        =  -113.33MV  \         0V
    V(X_U1.N16668890)         =     8.500V  \         0V
    V(X_U1.N17088411)         =    -7.991V  \         0V
    V(X_U1.X_U54.YINT)        =     5.000V  \         0V
    V(X_U1.N16698404)         =    6.250uV  \         0V
    V(X_U1.N17167706)         =    6.250uV  \         0V
    V(X_U1.X_U61.YINT)        =     5.000V  \         0V
    V(X_U1.N17153666)         =    6.250uV  \         0V
    V(X_U1.X_U62.YINT)        =     5.000V  \         0V

  These supply currents failed to converge:

    I(X_U1.E_ABM2)            =  -450.00mA  \         0A
    I(X_U1.E_E15)             =   893.79nA  \         0A
    I(X_U1.E_ABM23)           =    5.000MA  \         0A
    I(X_U1.E_ABM1)            =    18.00MA  \         0A
    I(X_U1.E_ABM4)            =   113.34MA  \         0A
    I(X_U1.e.T_T3.eA1)        =     9.75nA  \         0A
    I(X_U1.E_ABM24)           =    5.000MA  \         0A
    I(X_U1.E_ABM22)           =  -200.00mA  \         0A
    I(X_U1.E_E9)              =    -1.515A  \         0A
    I(X_U1.E_ABM7)            =   113.34MA  \         0A
    I(X_U1.E_E4)              =    -1.515A  \         0A
    I(X_U1.E_ABM8)            =    -11.25A  \         0A
    I(X_U1.X_U54.E_ABMGATE)   =    -5.000A  \         0A
    I(X_U1.X_U61.E_ABMGATE)   =    -5.000A  \         0A
    I(X_U1.X_U62.E_ABMGATE)   =    -5.000A  \         0A
    I(X_M1.L1)                =    6.548uA  \         0A
    I(X_M1.L2)                =   -3.276uA  \         0A
    I(X_M1.L3)                =   -3.276uA  \         0A
    I(X_M2.L1)                =    3.799uA  \         0A
    I(X_M2.L2)                =   -1.895uA  \         0A
    I(X_M2.L3)                =   -1.895uA  \         0A
    IA(X_U1.T_T3)             =     9.75nA  \         0A
    I(V_V1)                   =   -10.00GA  \         0A
    I(V_V3)                   =   -6.548uA  \         0A
    I(V_V4)                   =    -0.999A  \         0A
    I(V_V5)                   =    -5.003A  \         0A
    I(X_U1.V_V8)              =  -350.00mA  \         0A
    I(X_U1.V_V5)              =  -350.00mA  \         0A
    I(X_U1.X_H1.VH_H1)        =     5.000A  \         0A

  These devices failed to converge:
    D_D3      D_D4      X_U1.X_U40.d1 X_U1.X_U57.d1 X_U1.X_U55.d1 X_U1.X_U37.d1 
    X_U1.X_U35.d1 X_U1.X_U56.d1 X_U1.X_U59.d1 X_U1.X_U60.d1 X_U1.E_ABM2 
    X_U1.E_ABM23 X_U1.E_ABM1 X_U1.E_ABM4 X_U1.E_ABM24 X_U1.E_ABM25 X_U1.E_ABM22 
    X_U1.E_ABM7 X_U1.E_ABM8 X_U1.X_M14.m1 



  Last node voltages tried were:

 NODE   VOLTAGE     NODE   VOLTAGE     NODE   VOLTAGE     NODE   VOLTAGE


(   5V)    5.0000  (   HO)   -7.9914  (   LO)  -30.0000  (   VS)   -7.9914      

(  VCC)   30.0000  (  VEE)  -30.0000  (N14471) 2.841E-06 (N14815)  -18.0000     

(N15021)   -7.9914 (N15120)   -8.0107 (N15452)     .0063 (N15912)  -30.0000     

(N15951)   -7.9914 (N16029)  -30.0000 (N16045)   -7.9914 (N16258)    0.0000     

(N18431)    0.0000 (N18435)    0.0000 (N18439)    0.0000 (N18443)    0.0000     

(X_M1.4)   11.6670 (X_M1.5)   11.6670 (X_M1.6)   11.6670 (X_M2.4)  -18.6290     

(X_M2.5)  -18.6290 (X_M2.6)  -18.6290 (X_M1.11)   11.6670                       

(X_M1.12)   11.6670                   (X_M1.22)   11.6670                       

(X_M1.33)   11.6670                   (X_M2.11)  -18.6290                       

(X_M2.12)  -18.6290                   (X_M2.22)  -18.6290                       

(X_M2.33)  -18.6290                   (X_U1.DIS)    0.0000                      

(X_U1.DRVA)    0.0000                 (X_U1.DRVB)    0.0000                     

(X_U1.NO_DT)    5.0000                (X_U1.PWMIN)    2.2500                    

(X_U1.UVLO1)-18.00E+06                (X_U1.UVLO2)-113.3E+06                    

(X_U1.INA_OK)    0.0000               (X_U1.INB_OK)    0.0000                   

(X_U1.PWMINB)    1.0000               (X_U1.UVLO2B)-113.3E+06                   

(X_U1.INA_INT)    0.0000              (X_U1.INA_OKD)    0.0000                  

(X_U1.INA_PRE)    0.0000              (X_U1.INB_OKD)    0.0000                  

(X_U1.INB_PRE)    0.0000              (X_U1.VCCI_INT)    5.0000                 

(X_U1.DRVA_PASS)    0.0000            (X_U1.DRVB_PASS)    0.0000                

(X_U1.FAULT_INP)    0.0000            (X_U1.N16668890)    8.5000                

(X_U1.N16668898)   22.6670            (X_U1.N16669068)    0.0000                

(X_U1.N16669308)   -7.9914            (X_U1.N16669580)    0.0000                

(X_U1.N16669674)    0.0000            (X_U1.N16669834)    2.7000                

(X_U1.N16669842)    3.6000            (X_U1.N16669858)    0.0000                

(X_U1.N16670120) 437.5E-09            (X_U1.N16670154)    2.0000                

(X_U1.N16670162)    0.0000            (X_U1.N16670228)-5.000E+06                

(X_U1.N16670408)    0.0000            (X_U1.N16670672)    1.0000                

(X_U1.N16670780)-1.137E-09            (X_U1.N16670790)    0.0000                

(X_U1.N16670816) 2.841E-06            (X_U1.N16670888)    8.5000                

(X_U1.N16670896)   22.6670            (X_U1.N16671044)   12.0000                

(X_U1.N16671166)   11.2500            (X_U1.N16671236) 9.745E-06                

(X_U1.N16671468)   -6.2500            (X_U1.N16671552) 437.5E-09                

(X_U1.N16671580)    2.0000            (X_U1.N16671640)-5.000E+06                

(X_U1.N16671702)   -6.2500            (X_U1.N16671830)    0.0000                

(X_U1.N16671850)    0.0000            (X_U1.N16672106)    1.0000                

(X_U1.N16672276)    1.8000            (X_U1.N16672306)-2.250E-06                

(X_U1.N16672528) 389.8E-09            (X_U1.N16672594)    0.0000                

(X_U1.N16672776)  -18.0000            (X_U1.N16672784)  -30.0000                

(X_U1.N16672968)  -30.0000            (X_U1.N16673112)    0.0000                

(X_U1.N16673358)    0.0000            (X_U1.N16673432)    1.8000                

(X_U1.N16673492)-2.250E-06            (X_U1.N16673790) 173.3E-09                

(X_U1.N16698404) 6.250E-06            (X_U1.N16970878)   -7.9914                

(X_U1.N17051744) 947.0E-09            (X_U1.N17051757)    5.0000                

(X_U1.N17051771)  -30.0000            (X_U1.N17088411)   -7.9914                

(X_U1.N17110019) 947.0E-09            (X_U1.N17110021)    5.0000                

(X_U1.N17110038)   -7.9914            (X_U1.N17127259)   -7.9914                

(X_U1.N17153666) 6.250E-06            (X_U1.N17167704)  -30.0000                

(X_U1.N17167706) 6.250E-06            (X_U1.N17196585) -141.6700                

(X_U1.N17198437) -141.6700            (X_U1.N17201974)  -22.5000                

(X_U1.N17396123)    0.0000            (X_U1.N17407797)    0.0000                

(X_U1.N167201110)-113.3E+06           (X_U1.N167208610)-18.00E+06               

(X_U1.N167216030)-113.3E+06           (X_U1.X_U42.YINT)    0.0000               

(X_U1.X_U43.YINT)    0.0000           (X_U1.X_U44.YINT)    0.0000               

(X_U1.X_U54.YINT)    5.0000           (X_U1.X_U61.YINT)    5.0000               

(X_U1.X_U62.YINT)    5.0000           (X_U1.DEAD_THRESH)    5.0000              

(X_U1.UVLO1_DELAYED)-433.1E-06        (X_U1.UVLO2_DELAYED)    -.0020            

(X_U1.UVLO2B_DELAYED)    -.0020       

Resuming Simulation with the following settings
ITL4 = 125
ABSTOL = 1.26e-010
VNTOL = 4.47e-005

Convergence problem in transient analysis at Time =  156.3E-18
         Time step =  156.3E-18, minimum allowable step size =  1.000E-15

  These voltages failed to converge:

    V(VEE)                    =    -30.00V  \         0V
    V(N14815)                 =    -18.00V  \         0V
    V(N15120)                 =    -8.011V  \         0V
    V(VS)                     =    -7.991V  \         0V
    V(N15021)                 =    -7.991V  \         0V
    V(N15452)                 =    6.250mV  \         0V
    V(LO)                     =    -30.00V  \         0V
    V(N15912)                 =    -30.00V  \         0V
    V(HO)                     =    -7.991V  \         0V
    V(N15951)                 =    -7.991V  \         0V
    V(N16045)                 =    -7.991V  \         0V
    V(N16029)                 =    -30.00V  \         0V
    V(VCC)                    =     30.00V  \         0V
    V(5V)                     =     5.000V  \         0V
    V(X_M1.11)                =     11.67V  \         0V
    V(X_M1.22)                =     11.67V  \         0V
    V(X_M1.33)                =     11.67V  \         0V
    V(X_M1.6)                 =     11.67V  \         0V
    V(X_M1.4)                 =     11.67V  \         0V
    V(X_M1.5)                 =     11.67V  \         0V
    V(X_M1.12)                =     11.67V  \         0V
    V(X_M2.11)                =    -18.63V  \         0V
    V(X_M2.22)                =    -18.63V  \         0V
    V(X_M2.33)                =    -18.63V  \         0V
    V(X_M2.6)                 =    -18.63V  \         0V
    V(X_M2.4)                 =    -18.63V  \         0V
    V(X_M2.5)                 =    -18.63V  \         0V
    V(X_M2.12)                =    -18.63V  \         0V
    V(X_U1.N16672784)         =    -30.00V  \         0V
    V(X_U1.PWMIN)             =     2.250V  \         0V
    V(X_U1.N17110038)         =    -7.991V  \         0V
    V(X_U1.N16671640)         =   -5.000MV  \         0V
    V(X_U1.N16672106)         =     1.000V  \         0V
    V(X_U1.UVLO1)             =   -18.00MV  \         0V
    V(X_U1.VCCI_INT)          =     5.000V  \         0V
    V(X_U1.N16669842)         =     3.600V  \         0V
    V(X_U1.UVLO2)             =  -113.33MV  \         0V
    V(X_U1.N167201110)        =  -113.33MV  \         0V
    V(X_U1.N17127259)         =    -7.991V  \         0V
    V(X_U1.UVLO2_DELAYED)     =   -1.964mV  \         0V
    V(X_U1.UVLO1_DELAYED)     =  -433.13uV  \         0V
    V(X_U1.N16672776)         =    -18.00V  \         0V
    V(X_U1.N16668898)         =     22.67V  \         0V
    V(X_U1.UVLO2B)            =  -113.33MV  \         0V
    V(X_U1.UVLO2B_DELAYED)    =   -1.964mV  \         0V
    V(X_U1.N16671580)         =     2.000V  \         0V
    V(X_U1.DEAD_THRESH)       =     5.000V  \         0V
    V(X_U1.N167208610)        =   -18.00MV  \         0V
    V(X_U1.NO_DT)             =     5.000V  \         0V
    V(X_U1.N16671702)         =    -6.250V  \         0V
    V(X_U1.N16670228)         =   -5.000MV  \         0V
    V(X_U1.N16670672)         =     1.000V  \         0V
    V(X_U1.N16670896)         =     22.67V  \         0V
    V(X_U1.N16670888)         =     8.500V  \         0V
    V(X_U1.N17198437)         =   -141.67V  \         0V
    V(X_U1.N17110021)         =     5.000V  \         0V
    V(X_U1.N16671468)         =    -6.250V  \         0V
    V(X_U1.N17167704)         =    -30.00V  \         0V
    V(X_U1.N17201974)         =    -22.50V  \         0V
    V(X_U1.N16671044)         =     12.00V  \         0V
    V(X_U1.N16669834)         =     2.700V  \         0V
    V(X_U1.N16671166)         =     11.25V  \         0V
    V(X_U1.PWMINB)            =     1.000V  \         0V
    V(X_U1.N16669308)         =    -7.991V  \         0V
    V(X_U1.N16970878)         =    -7.991V  \         0V
    V(X_U1.N16673432)         =     1.800V  \         0V
    V(X_U1.N17051757)         =     5.000V  \         0V
    V(X_U1.N16672968)         =    -30.00V  \         0V
    V(X_U1.N16672276)         =     1.800V  \         0V
    V(X_U1.N17051771)         =    -30.00V  \         0V
    V(X_U1.N16670154)         =     2.000V  \         0V
    V(X_U1.N17196585)         =   -141.67V  \         0V
    V(X_U1.N167216030)        =  -113.33MV  \         0V
    V(X_U1.N16668890)         =     8.500V  \         0V
    V(X_U1.N17088411)         =    -7.991V  \         0V
    V(X_U1.X_U54.YINT)        =     5.000V  \         0V
    V(X_U1.X_U61.YINT)        =     5.000V  \         0V
    V(X_U1.X_U62.YINT)        =     5.000V  \         0V

  These supply currents failed to converge:

    I(X_U1.E_ABM2)            =  -450.00mA  \         0A
    I(X_U1.E_E15)             =   893.79nA  \         0A
    I(X_U1.E_ABM23)           =    5.000MA  \         0A
    I(X_U1.E_ABM1)            =    18.00MA  \         0A
    I(X_U1.E_ABM4)            =   113.34MA  \         0A
    I(X_U1.e.T_T3.eA1)        =     9.75nA  \         0A
    I(X_U1.E_ABM24)           =    5.000MA  \         0A
    I(X_U1.E_ABM22)           =  -200.00mA  \         0A
    I(X_U1.E_E9)              =    -1.515A  \         0A
    I(X_U1.E_ABM7)            =   113.34MA  \         0A
    I(X_U1.E_E4)              =    -1.515A  \         0A
    I(X_U1.E_ABM8)            =    -11.25A  \         0A
    I(X_U1.X_U54.E_ABMGATE)   =    -5.000A  \         0A
    I(X_U1.X_U61.E_ABMGATE)   =    -5.000A  \         0A
    I(X_U1.X_U62.E_ABMGATE)   =    -5.000A  \         0A
    I(X_M1.L1)                =    6.548uA  \         0A
    I(X_M1.L2)                =   -3.276uA  \         0A
    I(X_M1.L3)                =   -3.276uA  \         0A
    I(X_M2.L1)                =    3.799uA  \         0A
    I(X_M2.L2)                =   -1.895uA  \         0A
    I(X_M2.L3)                =   -1.895uA  \         0A
    IA(X_U1.T_T3)             =     9.75nA  \         0A
    I(V_V1)                   =   -10.00GA  \         0A
    I(V_V3)                   =   -6.548uA  \         0A
    I(V_V4)                   =    -0.999A  \         0A
    I(V_V5)                   =    -5.003A  \         0A
    I(X_U1.V_V8)              =  -350.00mA  \         0A
    I(X_U1.V_V5)              =  -350.00mA  \         0A
    I(X_U1.X_H1.VH_H1)        =     5.000A  \         0A

  These devices failed to converge:
    X_U1.X_U40.d1 X_U1.X_U57.d1 X_U1.X_U55.d1 X_U1.X_U37.d1 X_U1.X_U35.d1 
    X_U1.X_U56.d1 X_U1.X_U59.d1 X_U1.X_U60.d1 X_U1.E_ABM2 X_U1.E_ABM23 
    X_U1.E_ABM1 X_U1.E_ABM4 X_U1.E_ABM24 X_U1.E_ABM25 X_U1.E_ABM22 X_U1.E_ABM7 
    X_U1.E_ABM8 



  Last node voltages tried were:

 NODE   VOLTAGE     NODE   VOLTAGE     NODE   VOLTAGE     NODE   VOLTAGE


(   5V)    5.0000  (   HO)   -7.9914  (   LO)  -30.0000  (   VS)   -7.9914      

(  VCC)   30.0000  (  VEE)  -30.0000  (N14471) 2.841E-06 (N14815)  -18.0000     

(N15021)   -7.9914 (N15120)   -8.0107 (N15452)     .0063 (N15912)  -30.0000     

(N15951)   -7.9914 (N16029)  -30.0000 (N16045)   -7.9914 (N16258)    0.0000     

(N18431)    0.0000 (N18435)    0.0000 (N18439)    0.0000 (N18443)    0.0000     

(X_M1.4)   11.6670 (X_M1.5)   11.6670 (X_M1.6)   11.6670 (X_M2.4)  -18.6290     

(X_M2.5)  -18.6290 (X_M2.6)  -18.6290 (X_M1.11)   11.6670                       

(X_M1.12)   11.6670                   (X_M1.22)   11.6670                       

(X_M1.33)   11.6670                   (X_M2.11)  -18.6290                       

(X_M2.12)  -18.6290                   (X_M2.22)  -18.6290                       

(X_M2.33)  -18.6290                   (X_U1.DIS)    0.0000                      

(X_U1.DRVA)    0.0000                 (X_U1.DRVB)    0.0000                     

(X_U1.NO_DT)    5.0000                (X_U1.PWMIN)    2.2500                    

(X_U1.UVLO1)-18.00E+06                (X_U1.UVLO2)-113.3E+06                    

(X_U1.INA_OK)    0.0000               (X_U1.INB_OK)    0.0000                   

(X_U1.PWMINB)    1.0000               (X_U1.UVLO2B)-113.3E+06                   

(X_U1.INA_INT)    0.0000              (X_U1.INA_OKD)    0.0000                  

(X_U1.INA_PRE)    0.0000              (X_U1.INB_OKD)    0.0000                  

(X_U1.INB_PRE)    0.0000              (X_U1.VCCI_INT)    5.0000                 

(X_U1.DRVA_PASS)    0.0000            (X_U1.DRVB_PASS)    0.0000                

(X_U1.FAULT_INP)    0.0000            (X_U1.N16668890)    8.5000                

(X_U1.N16668898)   22.6670            (X_U1.N16669068)    0.0000                

(X_U1.N16669308)   -7.9914            (X_U1.N16669580)    0.0000                

(X_U1.N16669674)    0.0000            (X_U1.N16669834)    2.7000                

(X_U1.N16669842)    3.6000            (X_U1.N16669858)    0.0000                

(X_U1.N16670120) 437.5E-09            (X_U1.N16670154)    2.0000                

(X_U1.N16670162)    0.0000            (X_U1.N16670228)-5.000E+06                

(X_U1.N16670408)    0.0000            (X_U1.N16670672)    1.0000                

(X_U1.N16670780)-1.137E-09            (X_U1.N16670790)    0.0000                

(X_U1.N16670816) 2.841E-06            (X_U1.N16670888)    8.5000                

(X_U1.N16670896)   22.6670            (X_U1.N16671044)   12.0000                

(X_U1.N16671166)   11.2500            (X_U1.N16671236) 9.745E-06                

(X_U1.N16671468)   -6.2500            (X_U1.N16671552) 437.5E-09                

(X_U1.N16671580)    2.0000            (X_U1.N16671640)-5.000E+06                

(X_U1.N16671702)   -6.2500            (X_U1.N16671830)    0.0000                

(X_U1.N16671850)    0.0000            (X_U1.N16672106)    1.0000                

(X_U1.N16672276)    1.8000            (X_U1.N16672306)-2.250E-06                

(X_U1.N16672528) 389.8E-09            (X_U1.N16672594)    0.0000                

(X_U1.N16672776)  -18.0000            (X_U1.N16672784)  -30.0000                

(X_U1.N16672968)  -30.0000            (X_U1.N16673112)    0.0000                

(X_U1.N16673358)    0.0000            (X_U1.N16673432)    1.8000                

(X_U1.N16673492)-2.250E-06            (X_U1.N16673790) 173.3E-09                

(X_U1.N16698404) 6.250E-06            (X_U1.N16970878)   -7.9914                

(X_U1.N17051744) 947.0E-09            (X_U1.N17051757)    5.0000                

(X_U1.N17051771)  -30.0000            (X_U1.N17088411)   -7.9914                

(X_U1.N17110019) 947.0E-09            (X_U1.N17110021)    5.0000                

(X_U1.N17110038)   -7.9914            (X_U1.N17127259)   -7.9914                

(X_U1.N17153666) 6.250E-06            (X_U1.N17167704)  -30.0000                

(X_U1.N17167706) 6.250E-06            (X_U1.N17196585) -141.6700                

(X_U1.N17198437) -141.6700            (X_U1.N17201974)  -22.5000                

(X_U1.N17396123)    0.0000            (X_U1.N17407797)    0.0000                

(X_U1.N167201110)-113.3E+06           (X_U1.N167208610)-18.00E+06               

(X_U1.N167216030)-113.3E+06           (X_U1.X_U42.YINT)    0.0000               

(X_U1.X_U43.YINT)    0.0000           (X_U1.X_U44.YINT)    0.0000               

(X_U1.X_U54.YINT)    5.0000           (X_U1.X_U61.YINT)    5.0000               

(X_U1.X_U62.YINT)    5.0000           (X_U1.DEAD_THRESH)    5.0000              

(X_U1.UVLO1_DELAYED)-433.1E-06        (X_U1.UVLO2_DELAYED)    -.0020            

(X_U1.UVLO2B_DELAYED)    -.0020       

Resuming Simulation with the following settings
ITL4 = 1000
ABSTOL = 1.58e-008
VNTOL = 0.001

Convergence problem in transient analysis at Time =  156.3E-18
         Time step =  156.3E-18, minimum allowable step size =  1.000E-15

  These voltages failed to converge:

    V(VEE)                    =    -30.00V  \         0V
    V(N14815)                 =    -18.00V  \         0V
    V(N15120)                 =    -8.011V  \         0V
    V(VS)                     =    -7.991V  \         0V
    V(N15021)                 =    -7.991V  \         0V
    V(N15452)                 =    6.250mV  \         0V
    V(LO)                     =    -30.00V  \         0V
    V(N15912)                 =    -30.00V  \         0V
    V(HO)                     =    -7.991V  \         0V
    V(N15951)                 =    -7.991V  \         0V
    V(N16045)                 =    -7.991V  \         0V
    V(N16029)                 =    -30.00V  \         0V
    V(VCC)                    =     30.00V  \         0V
    V(5V)                     =     5.000V  \         0V
    V(X_M1.11)                =     11.67V  \         0V
    V(X_M1.22)                =     11.67V  \         0V
    V(X_M1.33)                =     11.67V  \         0V
    V(X_M1.6)                 =     11.67V  \         0V
    V(X_M1.4)                 =     11.67V  \         0V
    V(X_M1.5)                 =     11.67V  \         0V
    V(X_M1.12)                =     11.67V  \         0V
    V(X_M2.11)                =    -18.63V  \         0V
    V(X_M2.22)                =    -18.63V  \         0V
    V(X_M2.33)                =    -18.63V  \         0V
    V(X_M2.6)                 =    -18.63V  \         0V
    V(X_M2.4)                 =    -18.63V  \         0V
    V(X_M2.5)                 =    -18.63V  \         0V
    V(X_M2.12)                =    -18.63V  \         0V
    V(X_U1.N16672784)         =    -30.00V  \         0V
    V(X_U1.PWMIN)             =     2.250V  \         0V
    V(X_U1.N17110038)         =    -7.991V  \         0V
    V(X_U1.N16671640)         =   -5.000MV  \         0V
    V(X_U1.N16672106)         =     1.000V  \         0V
    V(X_U1.UVLO1)             =   -18.00MV  \         0V
    V(X_U1.VCCI_INT)          =     5.000V  \         0V
    V(X_U1.N16669842)         =     3.600V  \         0V
    V(X_U1.UVLO2)             =  -113.33MV  \         0V
    V(X_U1.N167201110)        =  -112.77MV  \         0V
    V(X_U1.N17127259)         =    -7.991V  \         0V
    V(X_U1.UVLO2_DELAYED)     =   -3.410mV  \         0V
    V(X_U1.N16672776)         =    -18.00V  \         0V
    V(X_U1.N16668898)         =     22.67V  \         0V
    V(X_U1.UVLO2B)            =  -113.33MV  \         0V
    V(X_U1.UVLO2B_DELAYED)    =   -1.964mV  \         0V
    V(X_U1.N16671580)         =     2.000V  \         0V
    V(X_U1.DEAD_THRESH)       =     5.000V  \         0V
    V(X_U1.N167208610)        =   -18.00MV  \         0V
    V(X_U1.NO_DT)             =     5.000V  \         0V
    V(X_U1.N16671702)         =    -6.250V  \         0V
    V(X_U1.N16670228)         =   -5.000MV  \         0V
    V(X_U1.N16670672)         =     1.000V  \         0V
    V(X_U1.N16670896)         =     22.67V  \         0V
    V(X_U1.N16670888)         =     8.500V  \         0V
    V(X_U1.N17198437)         =   -141.67V  \         0V
    V(X_U1.N17110021)         =     5.000V  \         0V
    V(X_U1.N16671468)         =    -6.250V  \         0V
    V(X_U1.N17167704)         =    -30.00V  \         0V
    V(X_U1.N17201974)         =    -22.50V  \         0V
    V(X_U1.N16671044)         =     12.00V  \         0V
    V(X_U1.N16669834)         =     2.700V  \         0V
    V(X_U1.N16671166)         =     11.25V  \         0V
    V(X_U1.PWMINB)            =     1.000V  \         0V
    V(X_U1.N16669308)         =    -7.991V  \         0V
    V(X_U1.N16970878)         =    -7.991V  \         0V
    V(X_U1.N16673432)         =     1.800V  \         0V
    V(X_U1.N17051757)         =     5.000V  \         0V
    V(X_U1.N16672968)         =    -30.00V  \         0V
    V(X_U1.N16672276)         =     1.800V  \         0V
    V(X_U1.N17051771)         =    -30.00V  \         0V
    V(X_U1.N16670154)         =     2.000V  \         0V
    V(X_U1.N17196585)         =   -141.67V  \         0V
    V(X_U1.N167216030)        =  -113.33MV  \         0V
    V(X_U1.N16668890)         =     8.500V  \         0V
    V(X_U1.N17088411)         =    -7.991V  \         0V
    V(X_U1.X_U54.YINT)        =     5.000V  \         0V
    V(X_U1.X_U61.YINT)        =     5.000V  \         0V
    V(X_U1.X_U62.YINT)        =     5.000V  \         0V

  These supply currents failed to converge:

    I(X_U1.E_ABM2)            =  -450.00mA  \         0A
    I(X_U1.E_E15)             =   893.79nA  \         0A
    I(X_U1.E_ABM23)           =    5.000MA  \         0A
    I(X_U1.E_ABM1)            =    18.00MA  \         0A
    I(X_U1.E_ABM4)            =   113.34MA  \         0A
    I(X_U1.E_ABM24)           =    5.000MA  \         0A
    I(X_U1.E_ABM22)           =  -200.00mA  \         0A
    I(X_U1.E_E9)              =    -1.515A  \         0A
    I(X_U1.E_ABM7)            =   113.34MA  \         0A
    I(X_U1.E_E4)              =    -1.515A  \         0A
    I(X_U1.E_ABM8)            =    -11.25A  \         0A
    I(X_U1.X_U54.E_ABMGATE)   =    -5.000A  \         0A
    I(X_U1.X_U61.E_ABMGATE)   =    -5.000A  \         0A
    I(X_U1.X_U62.E_ABMGATE)   =    -5.000A  \         0A
    I(X_M1.L1)                =    6.548uA  \         0A
    I(X_M1.L2)                =   -3.276uA  \         0A
    I(X_M1.L3)                =   -3.276uA  \         0A
    I(X_M2.L1)                =    3.799uA  \         0A
    I(X_M2.L2)                =   -1.895uA  \         0A
    I(X_M2.L3)                =   -1.895uA  \         0A
    I(V_V1)                   =   -10.00GA  \         0A
    I(V_V3)                   =   -6.548uA  \         0A
    I(V_V4)                   =    -0.999A  \         0A
    I(V_V5)                   =    -5.003A  \         0A
    I(X_U1.V_V8)              =  -350.00mA  \         0A
    I(X_U1.V_V5)              =  -350.00mA  \         0A
    I(X_U1.X_H1.VH_H1)        =     5.000A  \         0A

  These devices failed to converge:
    X_U1.X_U57.d1 X_U1.X_U55.d1 X_U1.X_U56.d1 X_U1.E_ABM2 X_U1.E_ABM23 
    X_U1.E_ABM1 X_U1.E_ABM4 X_U1.E_ABM24 X_U1.E_ABM25 X_U1.E_ABM22 X_U1.E_ABM7 
    X_U1.E_ABM8 



  Last node voltages tried were:

 NODE   VOLTAGE     NODE   VOLTAGE     NODE   VOLTAGE     NODE   VOLTAGE


(   5V)    5.0000  (   HO)   -7.9914  (   LO)  -30.0000  (   VS)   -7.9914      

(  VCC)   30.0000  (  VEE)  -30.0000  (N14471) 2.841E-06 (N14815)  -18.0000     

(N15021)   -7.9914 (N15120)   -8.0107 (N15452)     .0063 (N15912)  -30.0000     

(N15951)   -7.9914 (N16029)  -30.0000 (N16045)   -7.9914 (N16258)    0.0000     

(N18431)    0.0000 (N18435)    0.0000 (N18439)    0.0000 (N18443)    0.0000     

(X_M1.4)   11.6670 (X_M1.5)   11.6670 (X_M1.6)   11.6670 (X_M2.4)  -18.6290     

(X_M2.5)  -18.6290 (X_M2.6)  -18.6290 (X_M1.11)   11.6670                       

(X_M1.12)   11.6670                   (X_M1.22)   11.6670                       

(X_M1.33)   11.6670                   (X_M2.11)  -18.6290                       

(X_M2.12)  -18.6290                   (X_M2.22)  -18.6290                       

(X_M2.33)  -18.6290                   (X_U1.DIS)    0.0000                      

(X_U1.DRVA)    0.0000                 (X_U1.DRVB)    0.0000                     

(X_U1.NO_DT)    5.0000                (X_U1.PWMIN)    2.2500                    

(X_U1.UVLO1)-18.00E+06                (X_U1.UVLO2)-113.3E+06                    

(X_U1.INA_OK)    0.0000               (X_U1.INB_OK)    0.0000                   

(X_U1.PWMINB)    1.0000               (X_U1.UVLO2B)-113.3E+06                   

(X_U1.INA_INT)    0.0000              (X_U1.INA_OKD)    0.0000                  

(X_U1.INA_PRE)    0.0000              (X_U1.INB_OKD)    0.0000                  

(X_U1.INB_PRE)    0.0000              (X_U1.VCCI_INT)    5.0000                 

(X_U1.DRVA_PASS)    0.0000            (X_U1.DRVB_PASS)    0.0000                

(X_U1.FAULT_INP)    0.0000            (X_U1.N16668890)    8.5000                

(X_U1.N16668898)   22.6670            (X_U1.N16669068)    0.0000                

(X_U1.N16669308)   -7.9914            (X_U1.N16669580)    0.0000                

(X_U1.N16669674)    0.0000            (X_U1.N16669834)    2.7000                

(X_U1.N16669842)    3.6000            (X_U1.N16669858)    0.0000                

(X_U1.N16670120) 437.5E-09            (X_U1.N16670154)    2.0000                

(X_U1.N16670162)    0.0000            (X_U1.N16670228)-5.000E+06                

(X_U1.N16670408)    0.0000            (X_U1.N16670672)    1.0000                

(X_U1.N16670780)-1.137E-09            (X_U1.N16670790)    0.0000                

(X_U1.N16670816) 2.841E-06            (X_U1.N16670888)    8.5000                

(X_U1.N16670896)   22.6670            (X_U1.N16671044)   12.0000                

(X_U1.N16671166)   11.2500            (X_U1.N16671236) 9.745E-06                

(X_U1.N16671468)   -6.2500            (X_U1.N16671552) 437.5E-09                

(X_U1.N16671580)    2.0000            (X_U1.N16671640)-5.000E+06                

(X_U1.N16671702)   -6.2500            (X_U1.N16671830)    0.0000                

(X_U1.N16671850)    0.0000            (X_U1.N16672106)    1.0000                

(X_U1.N16672276)    1.8000            (X_U1.N16672306)-2.250E-06                

(X_U1.N16672528) 389.8E-09            (X_U1.N16672594)    0.0000                

(X_U1.N16672776)  -18.0000            (X_U1.N16672784)  -30.0000                

(X_U1.N16672968)  -30.0000            (X_U1.N16673112)    0.0000                

(X_U1.N16673358)    0.0000            (X_U1.N16673432)    1.8000                

(X_U1.N16673492)-2.250E-06            (X_U1.N16673790) 173.3E-09                

(X_U1.N16698404) 6.250E-06            (X_U1.N16970878)   -7.9914                

(X_U1.N17051744) 947.0E-09            (X_U1.N17051757)    5.0000                

(X_U1.N17051771)  -30.0000            (X_U1.N17088411)   -7.9914                

(X_U1.N17110019) 947.0E-09            (X_U1.N17110021)    5.0000                

(X_U1.N17110038)   -7.9914            (X_U1.N17127259)   -7.9914                

(X_U1.N17153666) 6.250E-06            (X_U1.N17167704)  -30.0000                

(X_U1.N17167706) 6.250E-06            (X_U1.N17196585) -141.6700                

(X_U1.N17198437) -141.6700            (X_U1.N17201974)  -22.5000                

(X_U1.N17396123)    0.0000            (X_U1.N17407797)    0.0000                

(X_U1.N167201110)-112.8E+06           (X_U1.N167208610)-18.00E+06               

(X_U1.N167216030)-113.3E+06           (X_U1.X_U42.YINT)    0.0000               

(X_U1.X_U43.YINT)    0.0000           (X_U1.X_U44.YINT)    0.0000               

(X_U1.X_U54.YINT)    5.0000           (X_U1.X_U61.YINT)    5.0000               

(X_U1.X_U62.YINT)    5.0000           (X_U1.DEAD_THRESH)    5.0000              

(X_U1.UVLO1_DELAYED)-433.1E-06        (X_U1.UVLO2_DELAYED)    -.0034            

(X_U1.UVLO2B_DELAYED)    -.0020       

Resuming Simulation with the following settings
ABSTOL = 1e-006

Convergence problem in transient analysis at Time =  156.3E-18
         Time step =  156.3E-18, minimum allowable step size =  1.000E-15

  These voltages failed to converge:

    V(VEE)                    =    -30.00V  \         0V
    V(N14815)                 =    -18.00V  \         0V
    V(N15120)                 =    -8.011V  \         0V
    V(VS)                     =    -7.991V  \         0V
    V(N15021)                 =    -7.991V  \         0V
    V(N15452)                 =    6.250mV  \         0V
    V(LO)                     =    -30.00V  \         0V
    V(N15912)                 =    -30.00V  \         0V
    V(HO)                     =    -7.991V  \         0V
    V(N15951)                 =    -7.991V  \         0V
    V(N16045)                 =    -7.991V  \         0V
    V(N16029)                 =    -30.00V  \         0V
    V(VCC)                    =     30.00V  \         0V
    V(5V)                     =     5.000V  \         0V
    V(X_M1.11)                =     11.67V  \         0V
    V(X_M1.22)                =     11.67V  \         0V
    V(X_M1.33)                =     11.67V  \         0V
    V(X_M1.6)                 =     11.67V  \         0V
    V(X_M1.4)                 =     11.67V  \         0V
    V(X_M1.5)                 =     11.67V  \         0V
    V(X_M1.12)                =     11.67V  \         0V
    V(X_M2.11)                =    -18.63V  \         0V
    V(X_M2.22)                =    -18.63V  \         0V
    V(X_M2.33)                =    -18.63V  \         0V
    V(X_M2.6)                 =    -18.63V  \         0V
    V(X_M2.4)                 =    -18.63V  \         0V
    V(X_M2.5)                 =    -18.63V  \         0V
    V(X_M2.12)                =    -18.63V  \         0V
    V(X_U1.N16672784)         =    -30.00V  \         0V
    V(X_U1.PWMIN)             =     2.250V  \         0V
    V(X_U1.N17110038)         =    -7.991V  \         0V
    V(X_U1.N16671640)         =   -5.000MV  \         0V
    V(X_U1.N16672106)         =     1.000V  \         0V
    V(X_U1.UVLO1)             =   -18.00MV  \         0V
    V(X_U1.VCCI_INT)          =     5.000V  \         0V
    V(X_U1.N16669842)         =     3.600V  \         0V
    V(X_U1.UVLO2)             =  -113.33MV  \         0V
    V(X_U1.N167201110)        =  -113.33MV  \         0V
    V(X_U1.N17127259)         =    -7.991V  \         0V
    V(X_U1.UVLO2_DELAYED)     =   -1.964mV  \         0V
    V(X_U1.N16672776)         =    -18.00V  \         0V
    V(X_U1.N16668898)         =     22.67V  \         0V
    V(X_U1.UVLO2B)            =  -113.33MV  \         0V
    V(X_U1.UVLO2B_DELAYED)    =   -1.964mV  \         0V
    V(X_U1.N16671580)         =     2.000V  \         0V
    V(X_U1.DEAD_THRESH)       =     5.000V  \         0V
    V(X_U1.N167208610)        =   -18.00MV  \         0V
    V(X_U1.NO_DT)             =     5.000V  \         0V
    V(X_U1.N16671702)         =    -6.250V  \         0V
    V(X_U1.N16670228)         =   -5.000MV  \         0V
    V(X_U1.N16670672)         =     1.000V  \         0V
    V(X_U1.N16670896)         =     22.67V  \         0V
    V(X_U1.N16670888)         =     8.500V  \         0V
    V(X_U1.N17198437)         =   -141.67V  \         0V
    V(X_U1.N17110021)         =     5.000V  \         0V
    V(X_U1.N16671468)         =    -6.250V  \         0V
    V(X_U1.N17167704)         =    -30.00V  \         0V
    V(X_U1.N17201974)         =    -22.50V  \         0V
    V(X_U1.N16671044)         =     12.00V  \         0V
    V(X_U1.N16669834)         =     2.700V  \         0V
    V(X_U1.N16671166)         =     11.25V  \         0V
    V(X_U1.PWMINB)            =     1.000V  \         0V
    V(X_U1.N16669308)         =    -7.991V  \         0V
    V(X_U1.N16970878)         =    -7.991V  \         0V
    V(X_U1.N16673432)         =     1.800V  \         0V
    V(X_U1.N17051757)         =     5.000V  \         0V
    V(X_U1.N16672968)         =    -30.00V  \         0V
    V(X_U1.N16672276)         =     1.800V  \         0V
    V(X_U1.N17051771)         =    -30.00V  \         0V
    V(X_U1.N16670154)         =     2.000V  \         0V
    V(X_U1.N17196585)         =   -141.67V  \         0V
    V(X_U1.N167216030)        =  -113.33MV  \         0V
    V(X_U1.N16668890)         =     8.500V  \         0V
    V(X_U1.N17088411)         =    -7.991V  \         0V
    V(X_U1.X_U54.YINT)        =     5.000V  \         0V
    V(X_U1.X_U61.YINT)        =     5.000V  \         0V
    V(X_U1.X_U62.YINT)        =     5.000V  \         0V

  These supply currents failed to converge:

    I(X_U1.E_ABM2)            =  -450.00mA  \         0A
    I(X_U1.E_ABM23)           =    5.000MA  \         0A
    I(X_U1.E_ABM1)            =    18.00MA  \         0A
    I(X_U1.E_ABM4)            =   113.34MA  \         0A
    I(X_U1.E_ABM24)           =    5.000MA  \         0A
    I(X_U1.E_ABM22)           =  -200.00mA  \         0A
    I(X_U1.E_E9)              =    -1.515A  \         0A
    I(X_U1.E_ABM7)            =   113.34MA  \         0A
    I(X_U1.E_E4)              =    -1.515A  \         0A
    I(X_U1.E_ABM8)            =    -11.25A  \         0A
    I(X_U1.X_U54.E_ABMGATE)   =    -5.000A  \         0A
    I(X_U1.X_U61.E_ABMGATE)   =    -5.000A  \         0A
    I(X_U1.X_U62.E_ABMGATE)   =    -5.000A  \         0A
    I(X_M1.L1)                =    6.548uA  \         0A
    I(X_M1.L2)                =   -3.276uA  \         0A
    I(X_M1.L3)                =   -3.276uA  \         0A
    I(X_M2.L1)                =    3.799uA  \         0A
    I(X_M2.L2)                =   -1.895uA  \         0A
    I(X_M2.L3)                =   -1.895uA  \         0A
    I(V_V1)                   =   -10.00GA  \         0A
    I(V_V3)                   =   -6.548uA  \         0A
    I(V_V4)                   =    -0.999A  \         0A
    I(V_V5)                   =    -5.003A  \         0A
    I(X_U1.V_V8)              =  -350.00mA  \         0A
    I(X_U1.V_V5)              =  -350.00mA  \         0A
    I(X_U1.X_H1.VH_H1)        =     5.000A  \         0A

  These devices failed to converge:
    X_U1.X_U57.d1 X_U1.X_U55.d1 X_U1.X_U56.d1 X_U1.E_ABM2 X_U1.E_ABM23 
    X_U1.E_ABM1 X_U1.E_ABM4 X_U1.E_ABM24 X_U1.E_ABM25 X_U1.E_ABM22 X_U1.E_ABM7 
    X_U1.E_ABM8 



  Last node voltages tried were:

 NODE   VOLTAGE     NODE   VOLTAGE     NODE   VOLTAGE     NODE   VOLTAGE


(   5V)    5.0000  (   HO)   -7.9914  (   LO)  -30.0000  (   VS)   -7.9914      

(  VCC)   30.0000  (  VEE)  -30.0000  (N14471) 2.841E-06 (N14815)  -18.0000     

(N15021)   -7.9914 (N15120)   -8.0107 (N15452)     .0063 (N15912)  -30.0000     

(N15951)   -7.9914 (N16029)  -30.0000 (N16045)   -7.9914 (N16258)    0.0000     

(N18431)    0.0000 (N18435)    0.0000 (N18439)    0.0000 (N18443)    0.0000     

(X_M1.4)   11.6670 (X_M1.5)   11.6670 (X_M1.6)   11.6670 (X_M2.4)  -18.6290     

(X_M2.5)  -18.6290 (X_M2.6)  -18.6290 (X_M1.11)   11.6670                       

(X_M1.12)   11.6670                   (X_M1.22)   11.6670                       

(X_M1.33)   11.6670                   (X_M2.11)  -18.6290                       

(X_M2.12)  -18.6290                   (X_M2.22)  -18.6290                       

(X_M2.33)  -18.6290                   (X_U1.DIS)    0.0000                      

(X_U1.DRVA)    0.0000                 (X_U1.DRVB)    0.0000                     

(X_U1.NO_DT)    5.0000                (X_U1.PWMIN)    2.2500                    

(X_U1.UVLO1)-18.00E+06                (X_U1.UVLO2)-113.3E+06                    

(X_U1.INA_OK)    0.0000               (X_U1.INB_OK)    0.0000                   

(X_U1.PWMINB)    1.0000               (X_U1.UVLO2B)-113.3E+06                   

(X_U1.INA_INT)    0.0000              (X_U1.INA_OKD)    0.0000                  

(X_U1.INA_PRE)    0.0000              (X_U1.INB_OKD)    0.0000                  

(X_U1.INB_PRE)    0.0000              (X_U1.VCCI_INT)    5.0000                 

(X_U1.DRVA_PASS)    0.0000            (X_U1.DRVB_PASS)    0.0000                

(X_U1.FAULT_INP)    0.0000            (X_U1.N16668890)    8.5000                

(X_U1.N16668898)   22.6670            (X_U1.N16669068)    0.0000                

(X_U1.N16669308)   -7.9914            (X_U1.N16669580)    0.0000                

(X_U1.N16669674)    0.0000            (X_U1.N16669834)    2.7000                

(X_U1.N16669842)    3.6000            (X_U1.N16669858)    0.0000                

(X_U1.N16670120) 437.5E-09            (X_U1.N16670154)    2.0000                

(X_U1.N16670162)    0.0000            (X_U1.N16670228)-5.000E+06                

(X_U1.N16670408)    0.0000            (X_U1.N16670672)    1.0000                

(X_U1.N16670780)-1.137E-09            (X_U1.N16670790)    0.0000                

(X_U1.N16670816) 2.841E-06            (X_U1.N16670888)    8.5000                

(X_U1.N16670896)   22.6670            (X_U1.N16671044)   12.0000                

(X_U1.N16671166)   11.2500            (X_U1.N16671236) 9.745E-06                

(X_U1.N16671468)   -6.2500            (X_U1.N16671552) 437.5E-09                

(X_U1.N16671580)    2.0000            (X_U1.N16671640)-5.000E+06                

(X_U1.N16671702)   -6.2500            (X_U1.N16671830)    0.0000                

(X_U1.N16671850)    0.0000            (X_U1.N16672106)    1.0000                

(X_U1.N16672276)    1.8000            (X_U1.N16672306)-2.250E-06                

(X_U1.N16672528) 389.8E-09            (X_U1.N16672594)    0.0000                

(X_U1.N16672776)  -18.0000            (X_U1.N16672784)  -30.0000                

(X_U1.N16672968)  -30.0000            (X_U1.N16673112)    0.0000                

(X_U1.N16673358)    0.0000            (X_U1.N16673432)    1.8000                

(X_U1.N16673492)-2.250E-06            (X_U1.N16673790) 173.3E-09                

(X_U1.N16698404) 6.250E-06            (X_U1.N16970878)   -7.9914                

(X_U1.N17051744) 947.0E-09            (X_U1.N17051757)    5.0000                

(X_U1.N17051771)  -30.0000            (X_U1.N17088411)   -7.9914                

(X_U1.N17110019) 947.0E-09            (X_U1.N17110021)    5.0000                

(X_U1.N17110038)   -7.9914            (X_U1.N17127259)   -7.9914                

(X_U1.N17153666) 6.250E-06            (X_U1.N17167704)  -30.0000                

(X_U1.N17167706) 6.250E-06            (X_U1.N17196585) -141.6700                

(X_U1.N17198437) -141.6700            (X_U1.N17201974)  -22.5000                

(X_U1.N17396123)    0.0000            (X_U1.N17407797)    0.0000                

(X_U1.N167201110)-113.3E+06           (X_U1.N167208610)-18.00E+06               

(X_U1.N167216030)-113.3E+06           (X_U1.X_U42.YINT)    0.0000               

(X_U1.X_U43.YINT)    0.0000           (X_U1.X_U44.YINT)    0.0000               

(X_U1.X_U54.YINT)    5.0000           (X_U1.X_U61.YINT)    5.0000               

(X_U1.X_U62.YINT)    5.0000           (X_U1.DEAD_THRESH)    5.0000              

(X_U1.UVLO1_DELAYED)-433.1E-06        (X_U1.UVLO2_DELAYED)    -.0020            

(X_U1.UVLO2B_DELAYED)    -.0020       

Resuming Simulation with the following settings
RELTOL = 0.0086

Convergence problem in transient analysis at Time =  156.3E-18
         Time step =  156.3E-18, minimum allowable step size =  1.000E-15

  These voltages failed to converge:

    V(VEE)                    =    -30.00V  \         0V
    V(N14815)                 =    -18.00V  \         0V
    V(N15120)                 =    -8.011V  \         0V
    V(VS)                     =    -7.991V  \         0V
    V(N15021)                 =    -7.991V  \         0V
    V(N15452)                 =    6.250mV  \         0V
    V(LO)                     =    -30.00V  \         0V
    V(N15912)                 =    -30.00V  \         0V
    V(HO)                     =    -7.991V  \         0V
    V(N15951)                 =    -7.991V  \         0V
    V(N16045)                 =    -7.991V  \         0V
    V(N16029)                 =    -30.00V  \         0V
    V(VCC)                    =     30.00V  \         0V
    V(5V)                     =     5.000V  \         0V
    V(X_M1.11)                =     11.67V  \         0V
    V(X_M1.22)                =     11.67V  \         0V
    V(X_M1.33)                =     11.67V  \         0V
    V(X_M1.6)                 =     11.67V  \         0V
    V(X_M1.4)                 =     11.67V  \         0V
    V(X_M1.5)                 =     11.67V  \         0V
    V(X_M1.12)                =     11.67V  \         0V
    V(X_M2.11)                =    -18.63V  \         0V
    V(X_M2.22)                =    -18.63V  \         0V
    V(X_M2.33)                =    -18.63V  \         0V
    V(X_M2.6)                 =    -18.63V  \         0V
    V(X_M2.4)                 =    -18.63V  \         0V
    V(X_M2.5)                 =    -18.63V  \         0V
    V(X_M2.12)                =    -18.63V  \         0V
    V(X_U1.N16672784)         =    -30.00V  \         0V
    V(X_U1.PWMIN)             =     2.250V  \         0V
    V(X_U1.N17110038)         =    -7.991V  \         0V
    V(X_U1.N16671640)         =   -5.000MV  \         0V
    V(X_U1.N16672106)         =     1.000V  \         0V
    V(X_U1.UVLO1)             =   -18.00MV  \         0V
    V(X_U1.VCCI_INT)          =     5.000V  \         0V
    V(X_U1.N16669842)         =     3.600V  \         0V
    V(X_U1.UVLO2)             =  -113.33MV  \         0V
    V(X_U1.N167201110)        =  -113.33MV  \         0V
    V(X_U1.N17127259)         =    -7.991V  \         0V
    V(X_U1.UVLO2_DELAYED)     =   -1.964mV  \         0V
    V(X_U1.N16672776)         =    -18.00V  \         0V
    V(X_U1.N16668898)         =     22.67V  \         0V
    V(X_U1.UVLO2B)            =  -113.33MV  \         0V
    V(X_U1.UVLO2B_DELAYED)    =   -1.964mV  \         0V
    V(X_U1.N16671580)         =     2.000V  \         0V
    V(X_U1.DEAD_THRESH)       =     5.000V  \         0V
    V(X_U1.N167208610)        =   -18.00MV  \         0V
    V(X_U1.NO_DT)             =     5.000V  \         0V
    V(X_U1.N16671702)         =    -6.250V  \         0V
    V(X_U1.N16670228)         =   -5.000MV  \         0V
    V(X_U1.N16670672)         =     1.000V  \         0V
    V(X_U1.N16670896)         =     22.67V  \         0V
    V(X_U1.N16670888)         =     8.500V  \         0V
    V(X_U1.N17198437)         =   -141.67V  \         0V
    V(X_U1.N17110021)         =     5.000V  \         0V
    V(X_U1.N16671468)         =    -6.250V  \         0V
    V(X_U1.N17167704)         =    -30.00V  \         0V
    V(X_U1.N17201974)         =    -22.50V  \         0V
    V(X_U1.N16671044)         =     12.00V  \         0V
    V(X_U1.N16669834)         =     2.700V  \         0V
    V(X_U1.N16671166)         =     11.25V  \         0V
    V(X_U1.PWMINB)            =     1.000V  \         0V
    V(X_U1.N16669308)         =    -7.991V  \         0V
    V(X_U1.N16970878)         =    -7.991V  \         0V
    V(X_U1.N16673432)         =     1.800V  \         0V
    V(X_U1.N17051757)         =     5.000V  \         0V
    V(X_U1.N16672968)         =    -30.00V  \         0V
    V(X_U1.N16672276)         =     1.800V  \         0V
    V(X_U1.N17051771)         =    -30.00V  \         0V
    V(X_U1.N16670154)         =     2.000V  \         0V
    V(X_U1.N17196585)         =   -141.67V  \         0V
    V(X_U1.N167216030)        =  -113.33MV  \         0V
    V(X_U1.N16668890)         =     8.500V  \         0V
    V(X_U1.N17088411)         =    -7.991V  \         0V
    V(X_U1.X_U54.YINT)        =     5.000V  \         0V
    V(X_U1.X_U61.YINT)        =     5.000V  \         0V
    V(X_U1.X_U62.YINT)        =     5.000V  \         0V

  These supply currents failed to converge:

    I(X_U1.E_ABM2)            =  -450.00mA  \         0A
    I(X_U1.E_ABM23)           =    5.000MA  \         0A
    I(X_U1.E_ABM1)            =    18.00MA  \         0A
    I(X_U1.E_ABM4)            =   113.34MA  \         0A
    I(X_U1.E_ABM24)           =    5.000MA  \         0A
    I(X_U1.E_ABM22)           =  -200.00mA  \         0A
    I(X_U1.E_E9)              =    -1.515A  \         0A
    I(X_U1.E_ABM7)            =   113.34MA  \         0A
    I(X_U1.E_E4)              =    -1.515A  \         0A
    I(X_U1.E_ABM8)            =    -11.25A  \         0A
    I(X_U1.X_U54.E_ABMGATE)   =    -5.000A  \         0A
    I(X_U1.X_U61.E_ABMGATE)   =    -5.000A  \         0A
    I(X_U1.X_U62.E_ABMGATE)   =    -5.000A  \         0A
    I(X_M1.L1)                =    6.548uA  \         0A
    I(X_M1.L2)                =   -3.276uA  \         0A
    I(X_M1.L3)                =   -3.276uA  \         0A
    I(X_M2.L1)                =    3.799uA  \         0A
    I(X_M2.L2)                =   -1.895uA  \         0A
    I(X_M2.L3)                =   -1.895uA  \         0A
    I(V_V1)                   =   -10.00GA  \         0A
    I(V_V3)                   =   -6.548uA  \         0A
    I(V_V4)                   =    -0.999A  \         0A
    I(V_V5)                   =    -5.003A  \         0A
    I(X_U1.V_V8)              =  -350.00mA  \         0A
    I(X_U1.V_V5)              =  -350.00mA  \         0A
    I(X_U1.X_H1.VH_H1)        =     5.000A  \         0A

  These devices failed to converge:
    X_U1.X_U57.d1 X_U1.X_U55.d1 X_U1.X_U56.d1 X_U1.E_ABM2 X_U1.E_ABM23 
    X_U1.E_ABM1 X_U1.E_ABM4 X_U1.E_ABM24 X_U1.E_ABM25 X_U1.E_ABM22 X_U1.E_ABM7 
    X_U1.E_ABM8 



  Last node voltages tried were:

 NODE   VOLTAGE     NODE   VOLTAGE     NODE   VOLTAGE     NODE   VOLTAGE


(   5V)    5.0000  (   HO)   -7.9914  (   LO)  -30.0000  (   VS)   -7.9914      

(  VCC)   30.0000  (  VEE)  -30.0000  (N14471) 2.841E-06 (N14815)  -18.0000     

(N15021)   -7.9914 (N15120)   -8.0107 (N15452)     .0063 (N15912)  -30.0000     

(N15951)   -7.9914 (N16029)  -30.0000 (N16045)   -7.9914 (N16258)    0.0000     

(N18431)    0.0000 (N18435)    0.0000 (N18439)    0.0000 (N18443)    0.0000     

(X_M1.4)   11.6670 (X_M1.5)   11.6670 (X_M1.6)   11.6670 (X_M2.4)  -18.6290     

(X_M2.5)  -18.6290 (X_M2.6)  -18.6290 (X_M1.11)   11.6670                       

(X_M1.12)   11.6670                   (X_M1.22)   11.6670                       

(X_M1.33)   11.6670                   (X_M2.11)  -18.6290                       

(X_M2.12)  -18.6290                   (X_M2.22)  -18.6290                       

(X_M2.33)  -18.6290                   (X_U1.DIS)    0.0000                      

(X_U1.DRVA)    0.0000                 (X_U1.DRVB)    0.0000                     

(X_U1.NO_DT)    5.0000                (X_U1.PWMIN)    2.2500                    

(X_U1.UVLO1)-18.00E+06                (X_U1.UVLO2)-113.3E+06                    

(X_U1.INA_OK)    0.0000               (X_U1.INB_OK)    0.0000                   

(X_U1.PWMINB)    1.0000               (X_U1.UVLO2B)-113.3E+06                   

(X_U1.INA_INT)    0.0000              (X_U1.INA_OKD)    0.0000                  

(X_U1.INA_PRE)    0.0000              (X_U1.INB_OKD)    0.0000                  

(X_U1.INB_PRE)    0.0000              (X_U1.VCCI_INT)    5.0000                 

(X_U1.DRVA_PASS)    0.0000            (X_U1.DRVB_PASS)    0.0000                

(X_U1.FAULT_INP)    0.0000            (X_U1.N16668890)    8.5000                

(X_U1.N16668898)   22.6670            (X_U1.N16669068)    0.0000                

(X_U1.N16669308)   -7.9914            (X_U1.N16669580)    0.0000                

(X_U1.N16669674)    0.0000            (X_U1.N16669834)    2.7000                

(X_U1.N16669842)    3.6000            (X_U1.N16669858)    0.0000                

(X_U1.N16670120) 437.5E-09            (X_U1.N16670154)    2.0000                

(X_U1.N16670162)    0.0000            (X_U1.N16670228)-5.000E+06                

(X_U1.N16670408)    0.0000            (X_U1.N16670672)    1.0000                

(X_U1.N16670780)-1.137E-09            (X_U1.N16670790)    0.0000                

(X_U1.N16670816) 2.841E-06            (X_U1.N16670888)    8.5000                

(X_U1.N16670896)   22.6670            (X_U1.N16671044)   12.0000                

(X_U1.N16671166)   11.2500            (X_U1.N16671236) 9.745E-06                

(X_U1.N16671468)   -6.2500            (X_U1.N16671552) 437.5E-09                

(X_U1.N16671580)    2.0000            (X_U1.N16671640)-5.000E+06                

(X_U1.N16671702)   -6.2500            (X_U1.N16671830)    0.0000                

(X_U1.N16671850)    0.0000            (X_U1.N16672106)    1.0000                

(X_U1.N16672276)    1.8000            (X_U1.N16672306)-2.250E-06                

(X_U1.N16672528) 389.8E-09            (X_U1.N16672594)    0.0000                

(X_U1.N16672776)  -18.0000            (X_U1.N16672784)  -30.0000                

(X_U1.N16672968)  -30.0000            (X_U1.N16673112)    0.0000                

(X_U1.N16673358)    0.0000            (X_U1.N16673432)    1.8000                

(X_U1.N16673492)-2.250E-06            (X_U1.N16673790) 173.3E-09                

(X_U1.N16698404) 6.250E-06            (X_U1.N16970878)   -7.9914                

(X_U1.N17051744) 947.0E-09            (X_U1.N17051757)    5.0000                

(X_U1.N17051771)  -30.0000            (X_U1.N17088411)   -7.9914                

(X_U1.N17110019) 947.0E-09            (X_U1.N17110021)    5.0000                

(X_U1.N17110038)   -7.9914            (X_U1.N17127259)   -7.9914                

(X_U1.N17153666) 6.250E-06            (X_U1.N17167704)  -30.0000                

(X_U1.N17167706) 6.250E-06            (X_U1.N17196585) -141.6700                

(X_U1.N17198437) -141.6700            (X_U1.N17201974)  -22.5000                

(X_U1.N17396123)    0.0000            (X_U1.N17407797)    0.0000                

(X_U1.N167201110)-113.3E+06           (X_U1.N167208610)-18.00E+06               

(X_U1.N167216030)-113.3E+06           (X_U1.X_U42.YINT)    0.0000               

(X_U1.X_U43.YINT)    0.0000           (X_U1.X_U44.YINT)    0.0000               

(X_U1.X_U54.YINT)    5.0000           (X_U1.X_U61.YINT)    5.0000               

(X_U1.X_U62.YINT)    5.0000           (X_U1.DEAD_THRESH)    5.0000              

(X_U1.UVLO1_DELAYED)-433.1E-06        (X_U1.UVLO2_DELAYED)    -.0020            

(X_U1.UVLO2B_DELAYED)    -.0020       

Resuming Simulation with the following settings
RELTOL = 0.05

Convergence problem in transient analysis at Time =  156.3E-18
         Time step =  156.3E-18, minimum allowable step size =  1.000E-15

  These voltages failed to converge:

    V(VEE)                    =    -30.00V  \         0V
    V(N14815)                 =    -18.00V  \         0V
    V(N15120)                 =    -8.011V  \         0V
    V(VS)                     =    -7.991V  \         0V
    V(N15021)                 =    -7.991V  \         0V
    V(N15452)                 =    6.250mV  \         0V
    V(LO)                     =    -30.00V  \         0V
    V(N15912)                 =    -30.00V  \         0V
    V(HO)                     =    -7.991V  \         0V
    V(N15951)                 =    -7.991V  \         0V
    V(N16045)                 =    -7.991V  \         0V
    V(N16029)                 =    -30.00V  \         0V
    V(VCC)                    =     30.00V  \         0V
    V(5V)                     =     5.000V  \         0V
    V(X_M1.11)                =     11.67V  \         0V
    V(X_M1.22)                =     11.67V  \         0V
    V(X_M1.33)                =     11.67V  \         0V
    V(X_M1.6)                 =     11.67V  \         0V
    V(X_M1.4)                 =     11.67V  \         0V
    V(X_M1.5)                 =     11.67V  \         0V
    V(X_M1.12)                =     11.67V  \         0V
    V(X_M2.11)                =    -18.63V  \         0V
    V(X_M2.22)                =    -18.63V  \         0V
    V(X_M2.33)                =    -18.63V  \         0V
    V(X_M2.6)                 =    -18.63V  \         0V
    V(X_M2.4)                 =    -18.63V  \         0V
    V(X_M2.5)                 =    -18.63V  \         0V
    V(X_M2.12)                =    -18.63V  \         0V
    V(X_U1.N16672784)         =    -30.00V  \         0V
    V(X_U1.PWMIN)             =     2.250V  \         0V
    V(X_U1.N17110038)         =    -7.991V  \         0V
    V(X_U1.N16671640)         =   -5.000MV  \         0V
    V(X_U1.N16672106)         =     1.000V  \         0V
    V(X_U1.UVLO1)             =   -18.00MV  \         0V
    V(X_U1.VCCI_INT)          =     5.000V  \         0V
    V(X_U1.N16669842)         =     3.600V  \         0V
    V(X_U1.UVLO2)             =  -113.33MV  \         0V
    V(X_U1.N167201110)        =  -113.33MV  \         0V
    V(X_U1.N17127259)         =    -7.991V  \         0V
    V(X_U1.UVLO2_DELAYED)     =   -1.964mV  \         0V
    V(X_U1.N16672776)         =    -18.00V  \         0V
    V(X_U1.N16668898)         =     22.67V  \         0V
    V(X_U1.UVLO2B)            =  -113.33MV  \         0V
    V(X_U1.UVLO2B_DELAYED)    =   -1.964mV  \         0V
    V(X_U1.N16671580)         =     2.000V  \         0V
    V(X_U1.DEAD_THRESH)       =     5.000V  \         0V
    V(X_U1.N167208610)        =   -18.00MV  \         0V
    V(X_U1.NO_DT)             =     5.000V  \         0V
    V(X_U1.N16671702)         =    -6.250V  \         0V
    V(X_U1.N16670228)         =   -5.000MV  \         0V
    V(X_U1.N16670672)         =     1.000V  \         0V
    V(X_U1.N16670896)         =     22.67V  \         0V
    V(X_U1.N16670888)         =     8.500V  \         0V
    V(X_U1.N17198437)         =   -141.67V  \         0V
    V(X_U1.N17110021)         =     5.000V  \         0V
    V(X_U1.N16671468)         =    -6.250V  \         0V
    V(X_U1.N17167704)         =    -30.00V  \         0V
    V(X_U1.N17201974)         =    -22.50V  \         0V
    V(X_U1.N16671044)         =     12.00V  \         0V
    V(X_U1.N16669834)         =     2.700V  \         0V
    V(X_U1.N16671166)         =     11.25V  \         0V
    V(X_U1.PWMINB)            =     1.000V  \         0V
    V(X_U1.N16669308)         =    -7.991V  \         0V
    V(X_U1.N16970878)         =    -7.991V  \         0V
    V(X_U1.N16673432)         =     1.800V  \         0V
    V(X_U1.N17051757)         =     5.000V  \         0V
    V(X_U1.N16672968)         =    -30.00V  \         0V
    V(X_U1.N16672276)         =     1.800V  \         0V
    V(X_U1.N17051771)         =    -30.00V  \         0V
    V(X_U1.N16670154)         =     2.000V  \         0V
    V(X_U1.N17196585)         =   -141.67V  \         0V
    V(X_U1.N167216030)        =  -113.33MV  \         0V
    V(X_U1.N16668890)         =     8.500V  \         0V
    V(X_U1.N17088411)         =    -7.991V  \         0V
    V(X_U1.X_U54.YINT)        =     5.000V  \         0V
    V(X_U1.X_U61.YINT)        =     5.000V  \         0V
    V(X_U1.X_U62.YINT)        =     5.000V  \         0V

  These supply currents failed to converge:

    I(X_U1.E_ABM2)            =  -450.00mA  \         0A
    I(X_U1.E_ABM23)           =    5.000MA  \         0A
    I(X_U1.E_ABM1)            =    18.00MA  \         0A
    I(X_U1.E_ABM4)            =   113.34MA  \         0A
    I(X_U1.E_ABM24)           =    5.000MA  \         0A
    I(X_U1.E_ABM22)           =  -200.00mA  \         0A
    I(X_U1.E_E9)              =    -1.515A  \         0A
    I(X_U1.E_ABM7)            =   113.34MA  \         0A
    I(X_U1.E_E4)              =    -1.515A  \         0A
    I(X_U1.E_ABM8)            =    -11.25A  \         0A
    I(X_U1.X_U54.E_ABMGATE)   =    -5.000A  \         0A
    I(X_U1.X_U61.E_ABMGATE)   =    -5.000A  \         0A
    I(X_U1.X_U62.E_ABMGATE)   =    -5.000A  \         0A
    I(X_M1.L1)                =    6.548uA  \         0A
    I(X_M1.L2)                =   -3.276uA  \         0A
    I(X_M1.L3)                =   -3.276uA  \         0A
    I(X_M2.L1)                =    3.799uA  \         0A
    I(X_M2.L2)                =   -1.895uA  \         0A
    I(X_M2.L3)                =   -1.895uA  \         0A
    I(V_V1)                   =   -10.00GA  \         0A
    I(V_V3)                   =   -6.548uA  \         0A
    I(V_V4)                   =    -0.999A  \         0A
    I(V_V5)                   =    -5.003A  \         0A
    I(X_U1.V_V8)              =  -350.00mA  \         0A
    I(X_U1.V_V5)              =  -350.00mA  \         0A
    I(X_U1.X_H1.VH_H1)        =     5.000A  \         0A

  These devices failed to converge:
    X_U1.X_U57.d1 X_U1.X_U55.d1 X_U1.X_U56.d1 X_U1.E_ABM2 X_U1.E_ABM23 
    X_U1.E_ABM1 X_U1.E_ABM4 X_U1.E_ABM24 X_U1.E_ABM25 X_U1.E_ABM22 X_U1.E_ABM7 
    X_U1.E_ABM8 



  Last node voltages tried were:

 NODE   VOLTAGE     NODE   VOLTAGE     NODE   VOLTAGE     NODE   VOLTAGE


(   5V)    5.0000  (   HO)   -7.9914  (   LO)  -30.0000  (   VS)   -7.9914      

(  VCC)   30.0000  (  VEE)  -30.0000  (N14471) 2.841E-06 (N14815)  -18.0000     

(N15021)   -7.9914 (N15120)   -8.0107 (N15452)     .0063 (N15912)  -30.0000     

(N15951)   -7.9914 (N16029)  -30.0000 (N16045)   -7.9914 (N16258)    0.0000     

(N18431)    0.0000 (N18435)    0.0000 (N18439)    0.0000 (N18443)    0.0000     

(X_M1.4)   11.6670 (X_M1.5)   11.6670 (X_M1.6)   11.6670 (X_M2.4)  -18.6290     

(X_M2.5)  -18.6290 (X_M2.6)  -18.6290 (X_M1.11)   11.6670                       

(X_M1.12)   11.6670                   (X_M1.22)   11.6670                       

(X_M1.33)   11.6670                   (X_M2.11)  -18.6290                       

(X_M2.12)  -18.6290                   (X_M2.22)  -18.6290                       

(X_M2.33)  -18.6290                   (X_U1.DIS)    0.0000                      

(X_U1.DRVA)    0.0000                 (X_U1.DRVB)    0.0000                     

(X_U1.NO_DT)    5.0000                (X_U1.PWMIN)    2.2500                    

(X_U1.UVLO1)-18.00E+06                (X_U1.UVLO2)-113.3E+06                    

(X_U1.INA_OK)    0.0000               (X_U1.INB_OK)    0.0000                   

(X_U1.PWMINB)    1.0000               (X_U1.UVLO2B)-113.3E+06                   

(X_U1.INA_INT)    0.0000              (X_U1.INA_OKD)    0.0000                  

(X_U1.INA_PRE)    0.0000              (X_U1.INB_OKD)    0.0000                  

(X_U1.INB_PRE)    0.0000              (X_U1.VCCI_INT)    5.0000                 

(X_U1.DRVA_PASS)    0.0000            (X_U1.DRVB_PASS)    0.0000                

(X_U1.FAULT_INP)    0.0000            (X_U1.N16668890)    8.5000                

(X_U1.N16668898)   22.6670            (X_U1.N16669068)    0.0000                

(X_U1.N16669308)   -7.9914            (X_U1.N16669580)    0.0000                

(X_U1.N16669674)    0.0000            (X_U1.N16669834)    2.7000                

(X_U1.N16669842)    3.6000            (X_U1.N16669858)    0.0000                

(X_U1.N16670120) 437.5E-09            (X_U1.N16670154)    2.0000                

(X_U1.N16670162)    0.0000            (X_U1.N16670228)-5.000E+06                

(X_U1.N16670408)    0.0000            (X_U1.N16670672)    1.0000                

(X_U1.N16670780)-1.137E-09            (X_U1.N16670790)    0.0000                

(X_U1.N16670816) 2.841E-06            (X_U1.N16670888)    8.5000                

(X_U1.N16670896)   22.6670            (X_U1.N16671044)   12.0000                

(X_U1.N16671166)   11.2500            (X_U1.N16671236) 9.745E-06                

(X_U1.N16671468)   -6.2500            (X_U1.N16671552) 437.5E-09                

(X_U1.N16671580)    2.0000            (X_U1.N16671640)-5.000E+06                

(X_U1.N16671702)   -6.2500            (X_U1.N16671830)    0.0000                

(X_U1.N16671850)    0.0000            (X_U1.N16672106)    1.0000                

(X_U1.N16672276)    1.8000            (X_U1.N16672306)-2.250E-06                

(X_U1.N16672528) 389.8E-09            (X_U1.N16672594)    0.0000                

(X_U1.N16672776)  -18.0000            (X_U1.N16672784)  -30.0000                

(X_U1.N16672968)  -30.0000            (X_U1.N16673112)    0.0000                

(X_U1.N16673358)    0.0000            (X_U1.N16673432)    1.8000                

(X_U1.N16673492)-2.250E-06            (X_U1.N16673790) 173.3E-09                

(X_U1.N16698404) 6.250E-06            (X_U1.N16970878)   -7.9914                

(X_U1.N17051744) 947.0E-09            (X_U1.N17051757)    5.0000                

(X_U1.N17051771)  -30.0000            (X_U1.N17088411)   -7.9914                

(X_U1.N17110019) 947.0E-09            (X_U1.N17110021)    5.0000                

(X_U1.N17110038)   -7.9914            (X_U1.N17127259)   -7.9914                

(X_U1.N17153666) 6.250E-06            (X_U1.N17167704)  -30.0000                

(X_U1.N17167706) 6.250E-06            (X_U1.N17196585) -141.6700                

(X_U1.N17198437) -141.6700            (X_U1.N17201974)  -22.5000                

(X_U1.N17396123)    0.0000            (X_U1.N17407797)    0.0000                

(X_U1.N167201110)-113.3E+06           (X_U1.N167208610)-18.00E+06               

(X_U1.N167216030)-113.3E+06           (X_U1.X_U42.YINT)    0.0000               

(X_U1.X_U43.YINT)    0.0000           (X_U1.X_U44.YINT)    0.0000               

(X_U1.X_U54.YINT)    5.0000           (X_U1.X_U61.YINT)    5.0000               

(X_U1.X_U62.YINT)    5.0000           (X_U1.DEAD_THRESH)    5.0000              

[...]
    V(X_U1.N16670896)         =     8.500V  \     9.220V
    V(X_U1.N17198437)         =   781.25nV  \    -7.203V
    V(X_U1.N16671468)         =         0V  \  -781.25mV
    V(X_U1.N17201974)         =   781.25nV  \    -2.177V
    V(X_U1.N16671166)         =     5.000V  \     11.25V
    V(X_U1.PWMINB)            =         0V  \     1.000V
    V(X_U1.N16673492)         =     1.000V  \   -2.250uV
    V(X_U1.N17196585)         =         0V  \    -7.203V
    V(X_U1.N167216030)        =   -1.433mV  \   -46.10MV

  These supply currents failed to converge:

    I(X_U1.E_ABM2)            =  -200.00mA  \  -450.00mA
    I(X_U1.E_ABM23)           =         0A  \    5.000MA
    I(X_U1.E_ABM1)            =    -5.007A  \    13.94MA
    I(X_U1.E_ABM4)            =   -5.100uA  \    46.11MA
    I(X_U1.E_ABM24)           =         0A  \    5.000MA
    I(X_U1.E_ABM22)           =         0A  \  -200.00mA
    I(X_U1.E_ABM7)            =    -5.015A  \    46.10MA
    I(X_U1.E_ABM8)            =    -5.000A  \    -11.25A
    I(V_V1)                   =   -10.00GA  \   -10.00GA

  These devices failed to converge:
    X_U1.X_U57.d1 X_U1.X_U55.d1 X_U1.X_U56.d1 X_U1.E_ABM2 X_U1.E_ABM8 
Restarting Simulation with the following settings
RELTOL = 0.05

Convergence problem in transient analysis at Time =  19.53E-18
         Time step =  19.53E-18, minimum allowable step size =  20.00E-18

  These voltages failed to converge:

    V(VEE)                    =    -30.00V  \         0V
    V(N14815)                 =    -18.00V  \         0V
    V(N15120)                 =    -8.011V  \         0V
    V(VS)                     =    -7.991V  \         0V
    V(N15021)                 =    -7.991V  \         0V
    V(LO)                     =    -30.00V  \         0V
    V(N15912)                 =    -30.00V  \         0V
    V(HO)                     =    -7.991V  \         0V
    V(N15951)                 =    -7.991V  \         0V
    V(N16045)                 =    -7.991V  \         0V
    V(N16029)                 =    -30.00V  \         0V
    V(VCC)                    =     30.00V  \         0V
    V(5V)                     =     5.000V  \         0V
    V(X_M1.11)                =     12.31V  \         0V
    V(X_M1.22)                =     12.31V  \         0V
    V(X_M1.33)                =     12.31V  \         0V
    V(X_M1.6)                 =     12.31V  \         0V
    V(X_M1.4)                 =     12.31V  \         0V
    V(X_M1.5)                 =     12.31V  \         0V
    V(X_M1.12)                =     12.31V  \         0V
    V(X_M2.11)                =    -19.83V  \         0V
    V(X_M2.22)                =    -19.83V  \         0V
    V(X_M2.33)                =    -19.83V  \         0V
    V(X_M2.6)                 =    -19.83V  \         0V
    V(X_M2.4)                 =    -19.83V  \         0V
    V(X_M2.5)                 =    -19.83V  \         0V
    V(X_M2.12)                =    -19.83V  \         0V
    V(X_U1.N16672784)         =    -30.00V  \         0V
    V(X_U1.PWMIN)             =     2.250V  \         0V
    V(X_U1.N17110038)         =    -7.991V  \         0V
    V(X_U1.N16671640)         =   -5.000MV  \         0V
    V(X_U1.N16672106)         =     1.000V  \         0V
    V(X_U1.UVLO1)             =   -13.94MV  \         0V
    V(X_U1.VCCI_INT)          =     5.000V  \         0V
    V(X_U1.N16669842)         =     2.787V  \         0V
    V(X_U1.UVLO2)             =   -46.10MV  \         0V
    V(X_U1.N167201110)        =   -45.41MV  \         0V
    V(X_U1.N17127259)         =    -7.991V  \         0V
    V(X_U1.N16672776)         =    -18.00V  \         0V
    V(X_U1.N16668898)         =     9.220V  \         0V
    V(X_U1.UVLO2B)            =   -46.10MV  \         0V
    V(X_U1.N16671580)         =     2.000V  \         0V
    V(X_U1.DEAD_THRESH)       =     5.000V  \         0V
    V(X_U1.N167208610)        =   -13.94MV  \         0V
    V(X_U1.NO_DT)             =     5.000V  \         0V
    V(X_U1.N16671702)         =  -781.25mV  \         0V
    V(X_U1.N16670228)         =   -5.000MV  \         0V
    V(X_U1.N16670672)         =     1.000V  \         0V
    V(X_U1.N16670896)         =     9.220V  \         0V
    V(X_U1.N16670888)         =     8.500V  \         0V
    V(X_U1.N17198437)         =    -7.203V  \         0V
    V(X_U1.N17110021)         =     5.000V  \         0V
    V(X_U1.N16671468)         =  -781.25mV  \         0V
    V(X_U1.N17167704)         =    -30.00V  \         0V
    V(X_U1.N17201974)         =    -2.177V  \         0V
    V(X_U1.N16671044)         =     12.00V  \         0V
    V(X_U1.N16669834)         =     2.700V  \         0V
    V(X_U1.N16671166)         =     11.25V  \         0V
    V(X_U1.PWMINB)            =     1.000V  \         0V
    V(X_U1.N16669308)         =    -7.991V  \         0V
    V(X_U1.N16970878)         =    -7.991V  \         0V
    V(X_U1.N16673432)         =     1.800V  \         0V
    V(X_U1.N17051757)         =     5.000V  \         0V
    V(X_U1.N16672968)         =    -30.00V  \         0V
    V(X_U1.N16672276)         =     1.800V  \         0V
    V(X_U1.N17051771)         =    -30.00V  \         0V
    V(X_U1.N16670154)         =     2.000V  \         0V
    V(X_U1.N17196585)         =    -7.203V  \         0V
    V(X_U1.N167216030)        =   -46.10MV  \         0V
    V(X_U1.N16668890)         =     8.500V  \         0V
    V(X_U1.N17088411)         =    -7.991V  \         0V
    V(X_U1.X_U54.YINT)        =     5.000V  \         0V
    V(X_U1.X_U61.YINT)        =     5.000V  \         0V
    V(X_U1.X_U62.YINT)        =     5.000V  \         0V

  These supply currents failed to converge:

    I(X_U1.E_ABM2)            =  -450.00mA  \         0A
    I(X_U1.E_E15)             =    8.257uA  \         0A
    I(X_U1.E_ABM23)           =    5.000MA  \         0A
    I(X_U1.E_ABM1)            =    13.94MA  \         0A
    I(X_U1.E_ABM4)            =    46.11MA  \         0A
    I(X_U1.E_ABM24)           =    5.000MA  \         0A
    I(X_U1.E_ABM22)           =  -200.00mA  \         0A
    I(X_U1.E_E9)              =    -1.515A  \         0A
    I(X_U1.E_ABM7)            =    46.10MA  \         0A
    I(X_U1.E_E4)              =    -1.515A  \         0A
    I(X_U1.E_ABM8)            =    -11.25A  \         0A
    I(X_U1.X_U54.E_ABMGATE)   =    -5.000A  \         0A
    I(X_U1.X_U61.E_ABMGATE)   =    -5.000A  \         0A
    I(X_U1.X_U62.E_ABMGATE)   =    -5.000A  \         0A
    I(V_V1)                   =   -10.00GA  \         0A
    I(V_V4)                   =    -1.000A  \         0A
    I(V_V5)                   =    -5.003A  \         0A
    I(X_U1.V_V8)              =  -350.00mA  \         0A
    I(X_U1.V_V5)              =  -350.00mA  \         0A
    I(X_U1.X_H1.VH_H1)        =     5.000A  \         0A

  These devices failed to converge:
    X_U1.X_U57.d1 X_U1.X_U55.d1 X_U1.X_U56.d1 X_U1.E_ABM2 X_U1.E_ABM23 
    X_U1.E_ABM1 X_U1.E_ABM4 X_U1.E_ABM24 X_U1.E_ABM25 X_U1.E_ABM22 X_U1.E_ABM7 
    X_U1.E_ABM8 



  Last node voltages tried were:

 NODE   VOLTAGE     NODE   VOLTAGE     NODE   VOLTAGE     NODE   VOLTAGE


(   5V)    5.0000  (   HO)   -7.9914  (   LO)  -30.0000  (   VS)   -7.9914      

(  VCC)   30.0000  (  VEE)  -30.0000  (N14471) 355.1E-09 (N14815)  -18.0000     

(N15021)   -7.9914 (N15120)   -8.0107 (N15452) 781.3E-06 (N15912)  -30.0000     

(N15951)   -7.9914 (N16029)  -30.0000 (N16045)   -7.9914 (N16258)    0.0000     

(N18431)    0.0000 (N18435)    0.0000 (N18439)    0.0000 (N18443)    0.0000     

(X_M1.4)   12.3060 (X_M1.5)   12.3060 (X_M1.6)   12.3060 (X_M2.4)  -19.8300     

(X_M2.5)  -19.8300 (X_M2.6)  -19.8300 (X_M1.11)   12.3060                       

(X_M1.12)   12.3060                   (X_M1.22)   12.3060                       

(X_M1.33)   12.3060                   (X_M2.11)  -19.8300                       

(X_M2.12)  -19.8300                   (X_M2.22)  -19.8300                       

(X_M2.33)  -19.8300                   (X_U1.DIS)    0.0000                      

(X_U1.DRVA)    0.0000                 (X_U1.DRVB)    0.0000                     

(X_U1.NO_DT)    5.0000                (X_U1.PWMIN)    2.2500                    

(X_U1.UVLO1)-13.94E+06                (X_U1.UVLO2)-46.10E+06                    

(X_U1.INA_OK)    0.0000               (X_U1.INB_OK)    0.0000                   

(X_U1.PWMINB)    1.0000               (X_U1.UVLO2B)-46.10E+06                   

(X_U1.INA_INT)    0.0000              (X_U1.INA_OKD)    0.0000                  

(X_U1.INA_PRE)    0.0000              (X_U1.INB_OKD)    0.0000                  

(X_U1.INB_PRE)    0.0000              (X_U1.VCCI_INT)    5.0000                 

(X_U1.DRVA_PASS)    0.0000            (X_U1.DRVB_PASS)    0.0000                

(X_U1.FAULT_INP)    0.0000            (X_U1.N16668890)    8.5000                

(X_U1.N16668898)    9.2203            (X_U1.N16669068)    0.0000                

(X_U1.N16669308)   -7.9914            (X_U1.N16669580)    0.0000                

(X_U1.N16669674)    0.0000            (X_U1.N16669834)    2.7000                

(X_U1.N16669842)    2.7871            (X_U1.N16669858)    0.0000                

(X_U1.N16670120) 54.69E-09            (X_U1.N16670154)    2.0000                

(X_U1.N16670162)    0.0000            (X_U1.N16670228)-5.000E+06                

(X_U1.N16670408)    0.0000            (X_U1.N16670672)    1.0000                

(X_U1.N16670780)-142.1E-12            (X_U1.N16670790)    0.0000                

(X_U1.N16670816) 355.1E-09            (X_U1.N16670888)    8.5000                

(X_U1.N16670896)    9.2203            (X_U1.N16671044)   12.0000                

(X_U1.N16671166)   11.2500            (X_U1.N16671236) 1.218E-06                

(X_U1.N16671468)    -.7813            (X_U1.N16671552) 54.69E-09                

(X_U1.N16671580)    2.0000            (X_U1.N16671640)-5.000E+06                

(X_U1.N16671702)    -.7813            (X_U1.N16671830)    0.0000                

(X_U1.N16671850)    0.0000            (X_U1.N16672106)    1.0000                

(X_U1.N16672276)    1.8000            (X_U1.N16672306)-2.250E-06                

(X_U1.N16672528) 48.73E-09            (X_U1.N16672594)    0.0000                

(X_U1.N16672776)  -18.0000            (X_U1.N16672784)  -30.0000                

(X_U1.N16672968)  -30.0000            (X_U1.N16673112)    0.0000                

(X_U1.N16673358)    0.0000            (X_U1.N16673432)    1.8000                

(X_U1.N16673492)-2.250E-06            (X_U1.N16673790) 21.66E-09                

(X_U1.N16698404) 781.3E-09            (X_U1.N16970878)   -7.9914                

(X_U1.N17051744) 118.4E-09            (X_U1.N17051757)    5.0000                

(X_U1.N17051771)  -30.0000            (X_U1.N17088411)   -7.9914                

(X_U1.N17110019) 118.4E-09            (X_U1.N17110021)    5.0000                

(X_U1.N17110038)   -7.9914            (X_U1.N17127259)   -7.9914                

(X_U1.N17153666) 781.3E-09            (X_U1.N17167704)  -30.0000                

(X_U1.N17167706) 781.3E-09            (X_U1.N17196585)   -7.2034                

(X_U1.N17198437)   -7.2034            (X_U1.N17201974)   -2.1774                

(X_U1.N17396123)    0.0000            (X_U1.N17407797)    0.0000                

(X_U1.N167201110)-45.41E+06           (X_U1.N167208610)-13.94E+06               

(X_U1.N167216030)-46.10E+06           (X_U1.X_U42.YINT)    0.0000               

(X_U1.X_U43.YINT)    0.0000           (X_U1.X_U44.YINT)    0.0000               

(X_U1.X_U54.YINT)    5.0000           (X_U1.X_U61.YINT)    5.0000               

(X_U1.X_U62.YINT)    5.0000           (X_U1.DEAD_THRESH)    5.0000              

(X_U1.UVLO1_DELAYED)-41.92E-06        (X_U1.UVLO2_DELAYED)-319.2E-06            

(X_U1.UVLO2B_DELAYED)-99.84E-06       

Resuming could not converge the circuit, restarting it now

  These voltages failed to converge:

    V(X_U1.PWMIN)             =     1.000V  \     2.250V
    V(X_U1.N16672306)         =     1.000V  \   -2.250uV
    V(X_U1.N16671640)         =         0V  \   -5.000MV
    V(X_U1.UVLO1)             =     5.000V  \   -13.94MV
    V(X_U1.UVLO2)             =         0V  \   -46.10MV
    V(X_U1.N167201110)        =   -1.734mV  \   -45.41MV
    V(X_U1.N16668898)         =     8.500V  \     9.220V
    V(X_U1.UVLO2B)            =     5.000V  \   -46.10MV
    V(X_U1.N167208610)        =   -1.372mV  \   -13.94MV
    V(X_U1.NO_DT)             =         0V  \     5.000V
    V(X_U1.N16671702)         =         0V  \  -781.25mV
    V(X_U1.N16670228)         =         0V  \   -5.000MV
    V(X_U1.N16670896)         =     8.500V  \     9.220V
    V(X_U1.N17198437)         =   781.25nV  \    -7.203V
    V(X_U1.N16671468)         =         0V  \  -781.25mV
    V(X_U1.N17201974)         =   781.25nV  \    -2.177V
    V(X_U1.N16671166)         =     5.000V  \     11.25V
    V(X_U1.PWMINB)            =         0V  \     1.000V
    V(X_U1.N16673492)         =     1.000V  \   -2.250uV
    V(X_U1.N17196585)         =         0V  \    -7.203V
    V(X_U1.N167216030)        =   -1.433mV  \   -46.10MV

  These supply currents failed to converge:

    I(X_U1.E_ABM2)            =  -200.00mA  \  -450.00mA
    I(X_U1.E_ABM23)           =         0A  \    5.000MA
    I(X_U1.E_ABM1)            =    -5.007A  \    13.94MA
    I(X_U1.E_ABM4)            =   -5.100uA  \    46.11MA
    I(X_U1.E_ABM24)           =         0A  \    5.000MA
    I(X_U1.E_ABM22)           =         0A  \  -200.00mA
    I(X_U1.E_ABM7)            =    -5.015A  \    46.10MA
    I(X_U1.E_ABM8)            =    -5.000A  \    -11.25A
    I(V_V1)                   =   -10.00GA  \   -10.00GA

  These devices failed to converge:
    X_U1.X_U57.d1 X_U1.X_U55.d1 X_U1.X_U56.d1 X_U1.E_ABM2 X_U1.E_ABM8 

ERROR(ORPSIM-15138): Convergence problem in Transient Analysis at Time =  19.53E-18.
         Time step =  19.53E-18, minimum allowable step size =  20.00E-18

  These voltages failed to converge:

    V(X_U1.PWMIN)             =         0V  \     1.000V
    V(X_U1.N16672306)         =     1.800V  \     1.000V
    V(X_U1.N16671166)         =         0V  \     5.000V
    V(X_U1.N16673492)         =     1.800V  \     1.000V

  These supply currents failed to converge:

    I(X_U1.E_ABM2)            =         0A  \  -200.00mA
    I(X_U1.E_ABM8)            =         0A  \    -5.000A
    I(V_V1)                   =   -10.00GA  \   -10.00GA

  These devices failed to converge:
    X_U1.X_U57.d1 X_U1.X_U55.d1 X_U1.X_U56.d1 X_U1.E_ABM22 



  Last node voltages tried were:

 NODE   VOLTAGE     NODE   VOLTAGE     NODE   VOLTAGE     NODE   VOLTAGE


(   5V)    5.0000  (   HO)   -7.9914  (   LO)  -30.0000  (   VS)   -7.9914      

(  VCC)   30.0000  (  VEE)  -30.0000  (N14471) 355.1E-09 (N14815)  -18.0000     

(N15021)   -7.9914 (N15120)   -8.0107 (N15452) 781.3E-06 (N15912)  -30.0000     

(N15951)   -7.9914 (N16029)  -30.0000 (N16045)   -7.9914 (N16258)    0.0000     

(N18431)    0.0000 (N18435)    0.0000 (N18439)    0.0000 (N18443)    0.0000     

(X_M1.4)   12.3060 (X_M1.5)   12.3060 (X_M1.6)   12.3060 (X_M2.4)  -19.8300     

(X_M2.5)  -19.8300 (X_M2.6)  -19.8300 (X_M1.11)   12.3060                       

(X_M1.12)   12.3060                   (X_M1.22)   12.3060                       

(X_M1.33)   12.3060                   (X_M2.11)  -19.8300                       

(X_M2.12)  -19.8300                   (X_M2.22)  -19.8300                       

(X_M2.33)  -19.8300                   (X_U1.DIS)    0.0000                      

(X_U1.DRVA)    0.0000                 (X_U1.DRVB)    0.0000                     

(X_U1.NO_DT)    0.0000                (X_U1.PWMIN)    0.0000                    

(X_U1.UVLO1)    5.0000                (X_U1.UVLO2)    0.0000                    

(X_U1.INA_OK)    0.0000               (X_U1.INB_OK)    0.0000                   

(X_U1.PWMINB)    0.0000               (X_U1.UVLO2B)    5.0000                   

(X_U1.INA_INT)    0.0000              (X_U1.INA_OKD)    0.0000                  

(X_U1.INA_PRE)    0.0000              (X_U1.INB_OKD)    0.0000                  

(X_U1.INB_PRE)    0.0000              (X_U1.VCCI_INT)    5.0000                 

(X_U1.DRVA_PASS)    0.0000            (X_U1.DRVB_PASS)    0.0000                

(X_U1.FAULT_INP)    0.0000            (X_U1.N16668890)    8.5000                

(X_U1.N16668898)    8.5000            (X_U1.N16669068)    0.0000                

(X_U1.N16669308)   -7.9914            (X_U1.N16669580)    0.0000                

(X_U1.N16669674)    0.0000            (X_U1.N16669834)    2.7000                

(X_U1.N16669842)    2.7000            (X_U1.N16669858)    0.0000                

(X_U1.N16670120) 54.69E-09            (X_U1.N16670154)    2.0000                

(X_U1.N16670162)    0.0000            (X_U1.N16670228)    0.0000                

(X_U1.N16670408)    0.0000            (X_U1.N16670672)    1.0000                

(X_U1.N16670780)-142.1E-12            (X_U1.N16670790)    0.0000                

(X_U1.N16670816) 355.1E-09            (X_U1.N16670888)    8.5000                

(X_U1.N16670896)    8.5000            (X_U1.N16671044)   12.0000                

(X_U1.N16671166)    0.0000            (X_U1.N16671236)    0.0000                

(X_U1.N16671468)    0.0000            (X_U1.N16671552) 54.69E-09                

(X_U1.N16671580)    2.0000            (X_U1.N16671640)    0.0000                

(X_U1.N16671702)    0.0000            (X_U1.N16671830)    0.0000                

(X_U1.N16671850)    0.0000            (X_U1.N16672106)    1.0000                

(X_U1.N16672276)    1.8000            (X_U1.N16672306)    1.8000                

(X_U1.N16672528)    0.0000            (X_U1.N16672594)    0.0000                

(X_U1.N16672776)  -18.0000            (X_U1.N16672784)  -30.0000                

(X_U1.N16672968)  -30.0000            (X_U1.N16673112)    0.0000                

(X_U1.N16673358)    0.0000            (X_U1.N16673432)    1.8000                

(X_U1.N16673492)    1.8000            (X_U1.N16673790)    0.0000                

(X_U1.N16698404) 781.3E-09            (X_U1.N16970878)   -7.9914                

(X_U1.N17051744) 118.4E-09            (X_U1.N17051757)    5.0000                

(X_U1.N17051771)  -30.0000            (X_U1.N17088411)   -7.9914                

(X_U1.N17110019) 118.4E-09            (X_U1.N17110021)    5.0000                

(X_U1.N17110038)   -7.9914            (X_U1.N17127259)   -7.9914                

(X_U1.N17153666) 781.3E-09            (X_U1.N17167704)  -30.0000                

(X_U1.N17167706) 781.3E-09            (X_U1.N17196585)    0.0000                

(X_U1.N17198437) 781.3E-09            (X_U1.N17201974) 781.3E-09                

(X_U1.N17396123)    0.0000            (X_U1.N17407797)    0.0000                

(X_U1.N167201110)    -.0017           (X_U1.N167208610)    -.0013               

(X_U1.N167216030)    -.0014           (X_U1.X_U42.YINT)    0.0000               

(X_U1.X_U43.YINT)    0.0000           (X_U1.X_U44.YINT)    0.0000               

(X_U1.X_U54.YINT)    5.0000           (X_U1.X_U61.YINT)    5.0000               

(X_U1.X_U62.YINT)    5.0000           (X_U1.DEAD_THRESH)    5.0000              

(X_U1.UVLO1_DELAYED) 718.2E-12        (X_U1.UVLO2_DELAYED)    0.0000            

(X_U1.UVLO2B_DELAYED) 1.603E-09       


**** Interrupt ****

The following unused Convergence options can be added to simulation:
CSHUNT=1e-12
DIODERS=1e-4
DIODECJO=2e-12
BJTCJ=1e-11
JFETCJ=1e-12
MOSCJ=1e-12

          JOB ABORTED

**** 04/03/20 00:28:34 ****** PSpice 17.2.0 (March 2016) ****** ID# 0 ********

 ** Profile: "SCHEMATIC1-bias"  [ C:\USERS\EMANU\DESKTOP\DCE-GRUPO10\REALIMENTADOR\PSpice\realimentador-pspicefiles\schematic1\bias.s


 ****     JOB STATISTICS SUMMARY


******************************************************************************



  Total job time (using Solver 1)   =        4.28
