Circuit: * C:\Users\Ema\Desktop\DCE-GRUPO10\DISTORSION\INTERMODULACION\txt\PWLPlot.asc

V1: Removing PWL point (1.46108e-006,3.26283)
V1: Removing PWL point (3.76961e-006,1.58787)
V1: Removing PWL point (6.46287e-006,3.3127)
V1: Removing PWL point (8.77722e-006,1.59649)
V1: Removing PWL point (1.14632e-005,3.29793)
V1: Removing PWL point (1.6462e-005,3.31945)
V1: Removing PWL point (1.64636e-005,3.32529)
V1: Removing PWL point (1.87705e-005,1.63308)
V1: Removing PWL point (1.87742e-005,1.61951)
V1: Removing PWL point (2.14625e-005,3.33206)
V1: Removing PWL point (2.37671e-005,1.6517)
V1: Removing PWL point (2.64646e-005,3.36881)
V1: Removing PWL point (3.14649e-005,3.35459)
V1: Removing PWL point (3.37709e-005,1.64524)
V1: Removing PWL point (3.64654e-005,3.34229)
V1: Removing PWL point (3.87741e-005,1.62914)
V1: Removing PWL point (4.14647e-005,3.34355)
V1: Removing PWL point (4.14664e-005,3.34938)
V1: Removing PWL point (4.64399e-005,3.26276)
V1: Removing PWL point (4.64665e-005,3.35568)
V1: Removing PWL point (5.14666e-005,3.36905)
V1: Removing PWL point (5.64671e-005,3.3787)
V1: Removing PWL point (5.87668e-005,1.69201)
V1: Removing PWL point (6.1468e-005,3.40997)
V1: Removing PWL point (6.37666e-005,1.72426)
V1: Removing PWL point (6.64662e-005,3.4262)
V1: Removing PWL point (6.64679e-005,3.43232)
V1: Removing PWL point (6.87665e-005,1.73592)
V1: Removing PWL point (7.14414e-005,3.3432)
V1: Removing PWL point (7.37602e-005,1.75934)
V1: Removing PWL point (7.37657e-005,1.73906)
V1: Removing PWL point (7.64666e-005,3.43668)
V1: Removing PWL point (7.64683e-005,3.4428)
V1: Removing PWL point (7.87665e-005,1.74469)
V1: Removing PWL point (7.87703e-005,1.73067)
V1: Removing PWL point (8.14695e-005,3.44659)
V1: Removing PWL point (8.37654e-005,1.75521)
V1: Removing PWL point (8.64678e-005,3.4564)
V1: Removing PWL point (8.87651e-005,1.76994)
V1: Removing PWL point (8.87689e-005,1.75586)
V1: Removing PWL point (9.37665e-005,1.77037)
V1: Removing PWL point (9.64706e-005,3.46648)
V1: Removing PWL point (9.87667e-005,1.76673)
V1: Removing PWL point (0.000101469,3.45909)
V1: Removing PWL point (0.000101471,3.46523)
V1: Removing PWL point (0.000103764,1.77837)
V1: Removing PWL point (0.000103768,1.76526)
V1: Removing PWL point (0.000108764,1.80699)
V1: Removing PWL point (0.000108768,1.79278)
V1: Removing PWL point (0.000111445,3.42093)
V1: Removing PWL point (0.000111471,3.51013)
V1: Removing PWL point (0.000116472,3.52244)
V1: Removing PWL point (0.000118762,1.83273)
V1: Removing PWL point (0.00012147,3.52998)
V1: Removing PWL point (0.000121472,3.53724)
V1: Removing PWL point (0.000123764,1.83949)
V1: Removing PWL point (0.000126471,3.52881)
V1: Removing PWL point (0.000126473,3.5351)
V1: Removing PWL point (0.000128767,1.82426)
V1: Removing PWL point (0.000131447,3.44532)
V1: Removing PWL point (0.000131474,3.5382)
V1: Removing PWL point (0.000133762,1.85087)
V1: Removing PWL point (0.000136473,3.55433)
V1: Removing PWL point (0.000138759,1.87345)
V1: Removing PWL point (0.000141473,3.5873)
V1: Removing PWL point (0.000143766,1.87582)
V1: Removing PWL point (0.000146474,3.57383)
V1: Removing PWL point (0.000148757,1.88931)
V1: Removing PWL point (0.000151473,3.60401)
V1: Removing PWL point (0.000151475,3.61047)
V1: Removing PWL point (0.000156448,3.50772)
V1: Removing PWL point (0.000156475,3.60007)
V1: Removing PWL point (0.000161475,3.59095)
V1: Removing PWL point (0.000163757,1.91133)
V1: Removing PWL point (0.000166476,3.63138)
V1: Removing PWL point (0.000168759,1.94759)
V1: Removing PWL point (0.000171474,3.6352)
V1: Removing PWL point (0.000173757,1.9548)
V1: Removing PWL point (0.000173761,1.93998)
V1: Removing PWL point (0.000176475,3.65394)
V1: Removing PWL point (0.000176477,3.66053)
V1: Removing PWL point (0.000178761,1.95707)
V1: Removing PWL point (0.000181475,3.62463)
V1: Removing PWL point (0.000183759,1.92978)
V1: Removing PWL point (0.000186478,3.63131)
V1: Removing PWL point (0.000188755,1.95933)
V1: Removing PWL point (0.000191476,3.67324)
V1: Removing PWL point (0.000193755,2.00348)
V1: Removing PWL point (0.000196478,3.70646)
V1: Removing PWL point (0.000198759,2.00321)
V1: Removing PWL point (0.000198762,1.98928)
V1: Removing PWL point (0.000201479,3.68402)
V1: Removing PWL point (0.000206479,3.70354)
V1: Removing PWL point (0.000211479,3.68569)
V1: Removing PWL point (0.000213758,1.98629)
V1: Removing PWL point (0.000216453,3.59313)
V1: Removing PWL point (0.000216478,3.67835)
V1: Removing PWL point (0.000218754,2.01268)
V1: Removing PWL point (0.000223758,2.03234)
V1: Removing PWL point (0.000228753,2.06908)
V1: Removing PWL point (0.000231481,3.77052)
V1: Removing PWL point (0.000233754,2.07703)
V1: Removing PWL point (0.000236481,3.76054)
V1: Removing PWL point (0.000238755,2.06064)
V1: Removing PWL point (0.000238759,2.04602)
V1: Removing PWL point (0.000243752,2.06699)
V1: Removing PWL point (0.00024648,3.77007)
V1: Removing PWL point (0.000246482,3.77778)
V1: Removing PWL point (0.000248759,2.07196)
V1: Removing PWL point (0.00025148,3.76281)
V1: Removing PWL point (0.000251482,3.76961)
V1: Removing PWL point (0.000258757,2.07713)
V1: Removing PWL point (0.000261484,3.75938)
V1: Removing PWL point (0.000266484,3.77415)
V1: Removing PWL point (0.000268751,2.1045)
V1: Removing PWL point (0.000271484,3.81913)
V1: Removing PWL point (0.00027375,2.14392)
V1: Removing PWL point (0.000273754,2.12934)
V1: Removing PWL point (0.000278755,2.14258)
V1: Removing PWL point (0.000281485,3.84392)
V1: Removing PWL point (0.000281485,3.84392)
V1: Removing PWL point (0.00028375,2.15734)
V1: Removing PWL point (0.000283754,2.14277)
V1: Removing PWL point (0.000286484,3.85207)
V1: Removing PWL point (0.000288746,2.17893)
V1: Removing PWL point (0.00028875,2.16415)
V1: Removing PWL point (0.000291483,3.88485)
V1: Removing PWL point (0.000291485,3.89179)
V1: Removing PWL point (0.000298748,2.16868)
V1: Removing PWL point (0.000298752,2.15406)
V1: Removing PWL point (0.000301486,3.86768)
V1: Removing PWL point (0.000306485,3.85964)
V1: Removing PWL point (0.000306487,3.86657)
V1: Removing PWL point (0.00030875,2.18125)
V1: Removing PWL point (0.000308754,2.1663)
V1: Removing PWL point (0.000311486,3.87274)
V1: Removing PWL point (0.000313749,2.18829)
V1: Removing PWL point (0.000313753,2.17293)
V1: Removing PWL point (0.000316487,3.88658)
V1: Removing PWL point (0.000318753,2.19154)
V1: Removing PWL point (0.000321488,3.90335)
V1: Removing PWL point (0.000326488,3.92313)
V1: Removing PWL point (0.000328745,2.25007)
V1: Removing PWL point (0.000328749,2.23529)
V1: Removing PWL point (0.000333746,2.273)
V1: Removing PWL point (0.00033375,2.25824)
V1: Removing PWL point (0.000336462,3.86662)
V1: Removing PWL point (0.000336486,3.95057)
V1: Removing PWL point (0.000336488,3.95854)
V1: Removing PWL point (0.000338745,2.27166)
V1: Removing PWL point (0.000338749,2.25684)
V1: Removing PWL point (0.000343744,2.28584)
V1: Removing PWL point (0.000346489,3.98211)
V1: Removing PWL point (0.000348749,2.28208)
V1: Removing PWL point (0.000351488,3.97534)
V1: Removing PWL point (0.000353744,2.2979)
V1: Removing PWL point (0.000353744,2.2979)
V1: Removing PWL point (0.000353748,2.28306)
V1: Removing PWL point (0.000356488,3.98256)
V1: Removing PWL point (0.000358748,2.29342)
V1: Removing PWL point (0.00036149,3.96205)
V1: Removing PWL point (0.000363752,2.24924)
V1: Removing PWL point (0.000366489,3.94197)
V1: Removing PWL point (0.000366491,3.94903)
V1: Removing PWL point (0.000368743,2.28375)
V1: Removing PWL point (0.00037374,2.34365)
V1: Removing PWL point (0.000376492,4.05613)
V1: Removing PWL point (0.000378741,2.3801)
V1: Removing PWL point (0.00038374,2.38224)
V1: Removing PWL point (0.00038649,4.06138)
V1: Removing PWL point (0.000386492,4.06853)
V1: Removing PWL point (0.000388747,2.36017)
V1: Removing PWL point (0.000388751,2.34523)
V1: Removing PWL point (0.00039149,4.00602)
V1: Removing PWL point (0.000391492,4.01323)
V1: Removing PWL point (0.000398739,2.34741)
V1: Removing PWL point (0.000401491,4.06034)
V1: Removing PWL point (0.000401493,4.06838)
V1: Removing PWL point (0.000406491,4.06704)
V1: Removing PWL point (0.000408739,2.39454)
V1: Removing PWL point (0.000411494,4.0899)
V1: Removing PWL point (0.000413744,2.39769)
V1: Removing PWL point (0.000416494,4.06632)
V1: Removing PWL point (0.000418742,2.37577)
V1: Removing PWL point (0.000421494,4.06184)
V1: Removing PWL point (0.000423737,2.40276)
V1: Removing PWL point (0.000423741,2.3862)
V1: Removing PWL point (0.000423741,2.3862)
V1: Removing PWL point (0.000426495,4.12098)
V1: Removing PWL point (0.000433741,2.45067)
V1: Removing PWL point (0.000436494,4.11248)
V1: Removing PWL point (0.000436496,4.11975)
V1: Removing PWL point (0.000438736,2.4479)
V1: Removing PWL point (0.000441495,4.14898)
V1: Removing PWL point (0.000446496,4.15361)
V1: Removing PWL point (0.000448741,2.45956)
V1: Removing PWL point (0.000451493,4.115)
V1: Removing PWL point (0.000456497,4.16451)
V1: Removing PWL point (0.00045874,2.48543)
V1: Removing PWL point (0.000461496,4.15613)
V1: Removing PWL point (0.000463739,2.46353)
V1: Removing PWL point (0.000466471,4.05396)
V1: Removing PWL point (0.000466498,4.14572)
V1: Removing PWL point (0.000468737,2.4757)
V1: Removing PWL point (0.000473735,2.51015)
V1: Removing PWL point (0.000476498,4.2069)
V1: Removing PWL point (0.000481496,4.19543)
V1: Removing PWL point (0.000481499,4.2036)
V1: Removing PWL point (0.000486497,4.18606)
V1: Removing PWL point (0.000486499,4.1943)
V1: Removing PWL point (0.000486499,4.1943)
V1: Removing PWL point (0.00049374,2.51898)
V1: Removing PWL point (0.000496499,4.18481)
V1: Removing PWL point (0.000498734,2.51515)
V1: Removing PWL point (0.000501473,4.12739)
V1: Removing PWL point (0.000501499,4.21909)
V1: Removing PWL point (0.000503734,2.55381)
V1: Removing PWL point (0.000506473,4.15492)
V1: Removing PWL point (0.000506499,4.24282)
V1: Removing PWL point (0.000508735,2.56079)
V1: Removing PWL point (0.000513736,2.55779)
V1: Removing PWL point (0.000516497,4.22786)
V1: Removing PWL point (0.0005165,4.23539)
V1: Removing PWL point (0.000518737,2.54593)
V1: Removing PWL point (0.0005215,4.21675)
V1: Removing PWL point (0.000523741,2.51675)
V1: Removing PWL point (0.000526499,4.21148)
V1: Removing PWL point (0.000526501,4.21975)
V1: Removing PWL point (0.000528735,2.55182)
V1: Removing PWL point (0.000531475,4.155)
V1: Removing PWL point (0.000531501,4.24661)
V1: Removing PWL point (0.000536499,4.29189)
V1: Removing PWL point (0.000536501,4.30031)
V1: Removing PWL point (0.000538708,2.72035)
V1: Removing PWL point (0.000541502,4.29781)
V1: Removing PWL point (0.00054373,2.62729)
V1: Removing PWL point (0.0005465,4.31161)
V1: Removing PWL point (0.000546502,4.3193)
V1: Removing PWL point (0.000546502,4.3193)
V1: Removing PWL point (0.000551503,4.3075)
V1: Removing PWL point (0.000553734,2.61823)
V1: Removing PWL point (0.000556501,4.28161)
V1: Removing PWL point (0.000556501,4.28161)
V1: Removing PWL point (0.000558735,2.6045)
V1: Removing PWL point (0.000561501,4.27182)
V1: Removing PWL point (0.000566503,4.2992)
V1: Removing PWL point (0.000568736,2.61724)
V1: Removing PWL point (0.000571501,4.27764)
V1: Removing PWL point (0.000571503,4.28517)
V1: Removing PWL point (0.000573731,2.61808)
V1: Removing PWL point (0.000576504,4.32112)
V1: Removing PWL point (0.000578728,2.6734)
V1: Removing PWL point (0.000581502,4.36772)
V1: Removing PWL point (0.000581504,4.3754)
V1: Removing PWL point (0.000583731,2.69797)
V1: Removing PWL point (0.000586502,4.35302)
V1: Removing PWL point (0.000591502,4.33454)
V1: Removing PWL point (0.000591505,4.3429)
V1: Removing PWL point (0.000601479,4.25145)
V1: Removing PWL point (0.000601503,4.33322)
V1: Removing PWL point (0.000603728,2.67859)
V1: Removing PWL point (0.000603728,2.67859)
V1: Removing PWL point (0.00060648,4.28778)
V1: Removing PWL point (0.000606505,4.37591)
V1: Removing PWL point (0.000608732,2.69706)
V1: Removing PWL point (0.000611504,4.35667)
V1: Removing PWL point (0.000611506,4.36501)
V1: Removing PWL point (0.000613731,2.68628)
V1: Removing PWL point (0.000618727,2.70211)
V1: Removing PWL point (0.000621507,4.40151)
V1: Removing PWL point (0.000623725,2.74901)
V1: Removing PWL point (0.000623726,2.74645)
V1: Removing PWL point (0.000626505,4.42983)
V1: Removing PWL point (0.000626507,4.43765)
V1: Removing PWL point (0.000628726,2.76835)
V1: Removing PWL point (0.000631481,4.35472)
V1: Removing PWL point (0.000631507,4.44257)
V1: Removing PWL point (0.000631507,4.44257)
V1: Removing PWL point (0.000633728,2.76111)
V1: Removing PWL point (0.000636481,4.33623)
V1: Removing PWL point (0.00063873,2.7407)
V1: Removing PWL point (0.000641505,4.39318)
V1: Removing PWL point (0.000646508,4.39528)
V1: Removing PWL point (0.000646508,4.39528)
V1: Removing PWL point (0.000651508,4.40549)
V1: Removing PWL point (0.000653729,2.7347)
V1: Removing PWL point (0.000653729,2.7347)
V1: Removing PWL point (0.000656508,4.41402)
V1: Removing PWL point (0.000661508,4.417)
V1: Removing PWL point (0.000663726,2.75385)
V1: Removing PWL point (0.000666509,4.4475)
V1: Removing PWL point (0.000671506,4.45181)
V1: Removing PWL point (0.000671508,4.4604)
V1: Removing PWL point (0.000676509,4.4273)
V1: Removing PWL point (0.000681509,4.48325)
V1: Removing PWL point (0.000683725,2.82334)
V1: Removing PWL point (0.000683725,2.82334)
V1: Removing PWL point (0.00068651,4.49939)
V1: Removing PWL point (0.000688728,2.81555)
V1: Removing PWL point (0.00069151,4.47207)
V1: Removing PWL point (0.000693724,2.80252)
V1: Removing PWL point (0.00069651,4.48814)
V1: Removing PWL point (0.000698724,2.82125)
V1: Removing PWL point (0.000703724,2.82632)
V1: Removing PWL point (0.000708726,2.82799)
V1: Removing PWL point (0.000711511,4.49859)
V1: Removing PWL point (0.000713725,2.8289)
V1: Removing PWL point (0.000716512,4.50909)
V1: Removing PWL point (0.000718723,2.85006)
V1: Removing PWL point (0.000721512,4.53592)
V1: Removing PWL point (0.000723724,2.8648)
V1: Removing PWL point (0.000726512,4.53211)
V1: Removing PWL point (0.00073151,4.53625)
V1: Removing PWL point (0.000733725,2.8694)
V1: Removing PWL point (0.000733725,2.86939)
V1: Removing PWL point (0.000736509,4.52033)
V1: Removing PWL point (0.000738722,2.85878)
V1: Removing PWL point (0.00074151,4.53659)
V1: Removing PWL point (0.000741513,4.54528)
V1: Removing PWL point (0.000743725,2.87569)
V1: Removing PWL point (0.000748722,2.8799)
V1: Removing PWL point (0.00075151,4.55023)
V1: Removing PWL point (0.000753726,2.87594)
V1: Removing PWL point (0.000756513,4.53087)
V1: Removing PWL point (0.000766514,4.58456)
V1: Removing PWL point (0.000768719,2.93162)
V1: Removing PWL point (0.000771511,4.60557)
V1: Removing PWL point (0.000773723,2.93233)
V1: Removing PWL point (0.000778717,2.9237)
V1: Removing PWL point (0.000781514,4.61575)
V1: Removing PWL point (0.000783721,2.94744)
V1: Removing PWL point (0.000783721,2.94744)
V1: Removing PWL point (0.000786489,4.51847)
V1: Removing PWL point (0.000786515,4.60727)
V1: Removing PWL point (0.000791515,4.62936)
V1: Removing PWL point (0.000793718,2.97014)
V1: Removing PWL point (0.000796515,4.64535)
V1: Removing PWL point (0.000798719,2.97304)
V1: Removing PWL point (0.000801512,4.62406)
V1: Removing PWL point (0.000801515,4.63308)
V1: Removing PWL point (0.000803719,2.95765)
V1: Removing PWL point (0.000806515,4.62558)
V1: Removing PWL point (0.000808722,2.94823)
V1: Removing PWL point (0.000811516,4.60864)
V1: Removing PWL point (0.000813718,2.94818)
V1: Removing PWL point (0.000818721,2.96352)
V1: Removing PWL point (0.000821514,4.62056)
V1: Removing PWL point (0.000821516,4.62843)
V1: Removing PWL point (0.000823715,2.9797)
V1: Removing PWL point (0.000826516,4.67568)
V1: Removing PWL point (0.000828717,3.01882)
V1: Removing PWL point (0.000831514,4.67985)
V1: Removing PWL point (0.000831517,4.68841)
V1: Removing PWL point (0.000836514,4.67527)
V1: Removing PWL point (0.000838721,3.00031)
V1: Removing PWL point (0.000841514,4.63928)
V1: Removing PWL point (0.000841516,4.64675)
V1: Removing PWL point (0.00084372,2.96774)
V1: Removing PWL point (0.000846517,4.63611)
V1: Removing PWL point (0.000848718,2.98007)
V1: Removing PWL point (0.000851518,4.66603)
V1: Removing PWL point (0.000853716,3.01602)
V1: Removing PWL point (0.000856518,4.69818)
V1: Removing PWL point (0.000858717,3.03441)
V1: Removing PWL point (0.000861518,4.70125)
V1: Removing PWL point (0.000863715,3.03886)
V1: Removing PWL point (0.000866518,4.71351)
V1: Removing PWL point (0.000871518,4.71605)
V1: Removing PWL point (0.000871518,4.71605)
V1: Removing PWL point (0.000876518,4.70738)
V1: Removing PWL point (0.000878718,3.03576)
V1: Removing PWL point (0.000881492,4.60761)
V1: Removing PWL point (0.000883712,3.04977)
V1: Removing PWL point (0.000886519,4.74038)
V1: Removing PWL point (0.000888719,3.066)
V1: Removing PWL point (0.000891519,4.7084)
V1: Removing PWL point (0.000898715,3.08519)
V1: Removing PWL point (0.000906494,4.64896)
V1: Removing PWL point (0.00090652,4.73981)
V1: Removing PWL point (0.000911517,4.71465)
V1: Removing PWL point (0.000913712,3.06914)
V1: Removing PWL point (0.00091652,4.75802)
V1: Removing PWL point (0.000918715,3.09827)
V1: Removing PWL point (0.000923713,3.09441)
V1: Removing PWL point (0.000926521,4.76936)
V1: Removing PWL point (0.000928711,3.12155)
V1: Removing PWL point (0.000938713,3.10201)
V1: Removing PWL point (0.000941518,4.76341)
V1: Removing PWL point (0.000943711,3.11773)
V1: Removing PWL point (0.000951519,4.7422)
V1: Removing PWL point (0.000951521,4.75024)
V1: Removing PWL point (0.000953714,3.0847)
V1: Removing PWL point (0.000958715,3.1083)
V1: Removing PWL point (0.000961495,4.68667)
V1: Removing PWL point (0.000961522,4.77733)
V1: Removing PWL point (0.000968711,3.12979)
V1: Removing PWL point (0.000973713,3.14206)
V1: Removing PWL point (0.000976522,4.80008)
V1: Removing PWL point (0.000978713,3.1332)
V1: Removing PWL point (0.000981522,4.79665)
V1: Removing PWL point (0.00098371,3.14586)
V1: Removing PWL point (0.000986523,4.82872)
V1: Removing PWL point (0.000996521,4.81383)
V1: Removing PWL point (0.000996523,4.82211)
V1: Removing PWL point (0.000998714,3.14412)
V1: Removing PWL point (0.00100152,4.79695)
V1: Removing PWL point (0.00100371,3.1395)
V1: Removing PWL point (0.00100871,3.16387)
V1: Removing PWL point (0.00101371,3.1871)
V1: Removing PWL point (0.00101652,4.84862)
V1: Removing PWL point (0.00101652,4.85728)
V1: Removing PWL point (0.00101871,3.18675)
V1: Removing PWL point (0.00102152,4.82632)
V1: Removing PWL point (0.00102371,3.16216)
V1: Removing PWL point (0.00102652,4.81916)
V1: Removing PWL point (0.00103152,4.7947)
V1: Removing PWL point (0.00103152,4.80348)
V1: Removing PWL point (0.00103371,3.15503)
V1: Removing PWL point (0.00103652,4.84351)
V1: Removing PWL point (0.00103871,3.18283)
V1: Removing PWL point (0.00104371,3.1704)
V1: Removing PWL point (0.00104652,4.83934)
V1: Removing PWL point (0.00105152,4.85249)
V1: Removing PWL point (0.00105152,4.86073)
V1: Removing PWL point (0.0010565,4.7478)
V1: Removing PWL point (0.00105652,4.83814)
V1: Removing PWL point (0.00105871,3.17649)
V1: Removing PWL point (0.00105871,3.17649)
V1: Removing PWL point (0.00106152,4.84316)
V1: Removing PWL point (0.00106371,3.18502)
V1: Removing PWL point (0.00106371,3.18502)
V1: Removing PWL point (0.00106652,4.82708)
V1: Removing PWL point (0.00106653,4.83585)
V1: Removing PWL point (0.00106871,3.17453)
V1: Removing PWL point (0.00107152,4.83938)
V1: Removing PWL point (0.0010815,4.82775)
V1: Removing PWL point (0.00108152,4.90928)
V1: Removing PWL point (0.00108371,3.25239)
V1: Removing PWL point (0.00108371,3.25239)
V1: Removing PWL point (0.00108652,4.89157)
V1: Removing PWL point (0.00108653,4.89982)
V1: Removing PWL point (0.00108871,3.21563)
V1: Removing PWL point (0.00109152,4.84056)
V1: Removing PWL point (0.00109152,4.84122)
V1: Removing PWL point (0.00109153,4.84938)
V1: Removing PWL point (0.00109871,3.22806)
V1: Removing PWL point (0.00110152,4.89145)
V1: Removing PWL point (0.00110153,4.90046)
V1: Removing PWL point (0.00110371,3.23805)
V1: Removing PWL point (0.0011065,4.80185)
V1: Removing PWL point (0.00110871,3.22013)
V1: Removing PWL point (0.00111153,4.87412)
V1: Removing PWL point (0.00111371,3.21962)
V1: Removing PWL point (0.0011165,4.80062)
V1: Removing PWL point (0.00111653,4.89135)
V1: Removing PWL point (0.00112871,3.24442)
V1: Removing PWL point (0.0011337,3.24006)
V1: Removing PWL point (0.00113653,4.92831)
V1: Removing PWL point (0.00113871,3.26755)
V1: Removing PWL point (0.00113871,3.26755)
V1: Removing PWL point (0.00114152,4.90234)
V1: Removing PWL point (0.00114371,3.25585)
V1: Removing PWL point (0.00114652,4.92318)
V1: Removing PWL point (0.00114653,4.93214)
V1: Removing PWL point (0.00114653,4.93215)
V1: Removing PWL point (0.00114871,3.2801)
V1: Removing PWL point (0.00115371,3.28088)
V1: Removing PWL point (0.0011565,4.85273)
V1: Removing PWL point (0.00115652,4.93286)
V1: Removing PWL point (0.00115871,3.27329)
V1: Removing PWL point (0.00116152,4.91368)
V1: Removing PWL point (0.00116153,4.92271)
V1: Removing PWL point (0.00116371,3.26591)
V1: Removing PWL point (0.00116653,4.93642)
V1: Removing PWL point (0.00116871,3.27621)
V1: Removing PWL point (0.00116871,3.27621)
V1: Removing PWL point (0.00117152,4.91789)
V1: Removing PWL point (0.00117153,4.92678)
V1: Removing PWL point (0.0011737,3.27785)
V1: Removing PWL point (0.00117653,4.9569)
V1: Removing PWL point (0.0011787,3.31441)
V1: Removing PWL point (0.0011815,4.89143)
V1: Removing PWL point (0.00118152,4.97329)
V1: Removing PWL point (0.00118153,4.98157)
V1: Removing PWL point (0.00118653,4.97408)
V1: Removing PWL point (0.00118871,3.29651)
V1: Removing PWL point (0.00118871,3.29651)
V1: Removing PWL point (0.00119152,4.92115)
V1: Removing PWL point (0.0011937,3.27679)
V1: Removing PWL point (0.00120153,4.92909)
V1: Removing PWL point (0.0012037,3.28911)
V1: Removing PWL point (0.0012065,4.87848)
V1: Removing PWL point (0.00120653,4.96712)
V1: Removing PWL point (0.00120871,3.3139)
V1: Removing PWL point (0.00121153,4.96458)
V1: Removing PWL point (0.0012137,3.31889)
V1: Removing PWL point (0.00121653,4.97107)
V1: Removing PWL point (0.00121653,4.98023)
V1: Removing PWL point (0.00122153,4.97267)
V1: Removing PWL point (0.0012237,3.31902)
V1: Removing PWL point (0.0012265,4.89608)
V1: Removing PWL point (0.00122653,4.97746)
V1: Removing PWL point (0.00122653,4.98646)
V1: Removing PWL point (0.00122871,3.31502)
V1: Removing PWL point (0.00123153,4.94683)
V1: Removing PWL point (0.0012337,3.29888)
V1: Removing PWL point (0.00123653,4.9812)
V1: Removing PWL point (0.00123871,3.31579)
V1: Removing PWL point (0.0012415,4.86079)
V1: Removing PWL point (0.00124371,3.29241)
V1: Removing PWL point (0.00124871,3.30861)
V1: Removing PWL point (0.00125153,4.96212)
V1: Removing PWL point (0.00125371,3.29884)
V1: Removing PWL point (0.00125371,3.29884)
V1: Removing PWL point (0.0012565,4.86386)
V1: Removing PWL point (0.00125653,4.94286)
V1: Removing PWL point (0.00125653,4.9511)
V1: Removing PWL point (0.00125871,3.28635)
V1: Removing PWL point (0.00126153,4.94059)
V1: Removing PWL point (0.00126371,3.28228)
V1: Removing PWL point (0.0012665,4.85278)
V1: Removing PWL point (0.00126871,3.27579)
V1: Removing PWL point (0.00127153,4.92359)
V1: Removing PWL point (0.0012737,3.30176)
V1: Removing PWL point (0.00127653,4.99961)
V1: Removing PWL point (0.00127871,3.34571)
V1: Removing PWL point (0.00128153,4.98251)
V1: Removing PWL point (0.00128371,3.31746)
V1: Removing PWL point (0.00128653,4.95021)
V1: Removing PWL point (0.00128653,4.95848)
V1: Removing PWL point (0.00128871,3.29712)
V1: Removing PWL point (0.00129153,4.95868)
V1: Removing PWL point (0.00129653,4.99249)
V1: Removing PWL point (0.00129653,5.00075)
V1: Removing PWL point (0.00129871,3.34346)
V1: Removing PWL point (0.00130371,3.31745)
V1: Removing PWL point (0.00130653,4.9569)
V1: Removing PWL point (0.00130653,4.96585)
V1: Removing PWL point (0.00130871,3.31043)
V1: Removing PWL point (0.00131153,4.97407)
V1: Removing PWL point (0.0013137,3.33165)
V1: Removing PWL point (0.00131653,5.00392)
V1: Removing PWL point (0.00132153,5.00555)
V1: Removing PWL point (0.00132153,5.01455)
V1: Removing PWL point (0.0013265,4.91001)
V1: Removing PWL point (0.00132653,5.00015)
V1: Removing PWL point (0.00132871,3.32318)
V1: Removing PWL point (0.00133153,4.9584)
V1: Removing PWL point (0.00133371,3.29072)
V1: Removing PWL point (0.00133653,4.93849)
V1: Removing PWL point (0.00133871,3.30098)
V1: Removing PWL point (0.00134653,5.0052)
V1: Removing PWL point (0.00134871,3.35075)
V1: Removing PWL point (0.00135153,5.00402)
V1: Removing PWL point (0.0013537,3.3622)
V1: Removing PWL point (0.00135653,5.03753)
V1: Removing PWL point (0.00135868,3.47096)
V1: Removing PWL point (0.00135871,3.37663)
V1: Removing PWL point (0.00136153,5.01336)
V1: Removing PWL point (0.0013637,3.35542)
V1: Removing PWL point (0.00136871,3.36211)
V1: Removing PWL point (0.00137371,3.33673)
V1: Removing PWL point (0.0013765,4.8908)
V1: Removing PWL point (0.00137653,4.98089)
V1: Removing PWL point (0.00137871,3.32678)
V1: Removing PWL point (0.00138153,4.98484)
V1: Removing PWL point (0.00138153,4.994)
V1: Removing PWL point (0.0013837,3.35074)
V1: Removing PWL point (0.00138653,5.0101)
V1: Removing PWL point (0.00138653,5.01905)
V1: Removing PWL point (0.00139153,5.02184)
V1: Removing PWL point (0.00139153,5.03099)
V1: Removing PWL point (0.0013937,3.37606)
V1: Removing PWL point (0.0013937,3.37606)
V1: Removing PWL point (0.00139653,5.0266)
V1: Removing PWL point (0.00139871,3.36202)
V1: Removing PWL point (0.00140153,4.98924)
V1: Removing PWL point (0.00140653,5.00796)
V1: Removing PWL point (0.00140653,5.01621)
V1: Removing PWL point (0.0014087,3.37541)
V1: Removing PWL point (0.0014137,3.38077)
V1: Removing PWL point (0.00141653,5.0299)
V1: Removing PWL point (0.0014187,3.36596)
V1: Removing PWL point (0.0014215,4.92355)
V1: Removing PWL point (0.00142153,5.01371)
V1: Removing PWL point (0.0014237,3.35781)
V1: Removing PWL point (0.0014287,3.35944)
V1: Removing PWL point (0.00143153,5.01609)
V1: Removing PWL point (0.00143653,5.00708)
V1: Removing PWL point (0.00144153,5.02064)
V1: Removing PWL point (0.00144653,5.00764)
V1: Removing PWL point (0.0014487,3.36064)
V1: Removing PWL point (0.00145153,5.02536)
V1: Removing PWL point (0.00145371,3.37525)
V1: Removing PWL point (0.00145653,5.01291)
V1: Removing PWL point (0.00145653,5.02193)
V1: Removing PWL point (0.0014587,3.37733)
V1: Removing PWL point (0.0014615,4.96188)
V1: Removing PWL point (0.00146153,5.05213)
V1: Removing PWL point (0.0014637,3.39629)
V1: Removing PWL point (0.0014665,4.95098)
V1: Removing PWL point (0.00146653,5.04094)
V1: Removing PWL point (0.0014687,3.37778)
V1: Removing PWL point (0.00147653,5.01204)
V1: Removing PWL point (0.0014787,3.37132)
V1: Removing PWL point (0.0014837,3.37848)
V1: Removing PWL point (0.00148653,5.02401)
V1: Removing PWL point (0.0014887,3.36517)
V1: Removing PWL point (0.00149653,5.0528)
V1: Removing PWL point (0.0015015,4.93358)
V1: Removing PWL point (0.00150153,5.02356)
V1: Removing PWL point (0.0015037,3.3606)
V1: Removing PWL point (0.0015037,3.36059)
V1: Removing PWL point (0.00150653,5.01636)
V1: Removing PWL point (0.0015087,3.36183)
V1: Removing PWL point (0.00151153,5.01396)
V1: Removing PWL point (0.0015137,3.36936)
V1: Removing PWL point (0.00151871,3.35859)
V1: Removing PWL point (0.00152153,4.99039)
V1: Removing PWL point (0.00152153,4.99937)
V1: Removing PWL point (0.0015237,3.3387)
V1: Removing PWL point (0.00152653,5.0019)
V1: Removing PWL point (0.00153153,5.00168)
V1: Removing PWL point (0.0015337,3.35781)
V1: Removing PWL point (0.00153653,5.03427)
V1: Removing PWL point (0.00154151,4.94944)
V1: Removing PWL point (0.00154153,5.02715)
V1: Removing PWL point (0.00154153,5.03629)
V1: Removing PWL point (0.00154653,5.01948)
V1: Removing PWL point (0.0015487,3.38833)
V1: Removing PWL point (0.00155153,5.06266)
V1: Removing PWL point (0.0015537,3.40599)
V1: Removing PWL point (0.0015587,3.38391)
V1: Removing PWL point (0.00156153,5.03286)
V1: Removing PWL point (0.0015637,3.37406)
V1: Removing PWL point (0.00156653,5.02744)
V1: Removing PWL point (0.00156871,3.36049)
V1: Removing PWL point (0.00157153,5.0072)
V1: Removing PWL point (0.00157653,5.0358)
V1: Removing PWL point (0.00157871,3.37737)
V1: Removing PWL point (0.00158153,5.01233)
V1: Removing PWL point (0.00158153,5.02126)
V1: Removing PWL point (0.00158371,3.35951)
V1: Removing PWL point (0.00158653,5.01153)
V1: Removing PWL point (0.00159153,4.97387)
V1: Removing PWL point (0.0015937,3.33598)
V1: Removing PWL point (0.0015987,3.3701)
V1: Removing PWL point (0.0016015,4.94662)
V1: Removing PWL point (0.00160153,5.02535)
V1: Removing PWL point (0.00160153,5.03338)
V1: Removing PWL point (0.0016065,4.9148)
V1: Removing PWL point (0.00160653,4.99597)
V1: Removing PWL point (0.00160653,5.00496)
V1: Removing PWL point (0.0016087,3.34949)
V1: Removing PWL point (0.0016087,3.34948)
V1: Removing PWL point (0.0016115,4.92509)
V1: Removing PWL point (0.00161153,5.00437)
V1: Removing PWL point (0.0016137,3.36642)
V1: Removing PWL point (0.00161871,3.36659)
V1: Removing PWL point (0.0016215,4.90967)
V1: Removing PWL point (0.00162153,4.99979)
V1: Removing PWL point (0.00162153,4.99979)
V1: Removing PWL point (0.0016237,3.34892)
V1: Removing PWL point (0.00162653,5.01994)
V1: Removing PWL point (0.00162653,5.01994)
V1: Removing PWL point (0.0016287,3.37454)
V1: Removing PWL point (0.0016287,3.37454)
V1: Removing PWL point (0.00163153,5.0281)
V1: Removing PWL point (0.00163153,5.03654)
V1: Removing PWL point (0.00163653,5.00175)
V1: Removing PWL point (0.00163653,5.01068)
V1: Removing PWL point (0.00163871,3.33846)
V1: Removing PWL point (0.00164153,4.97232)
V1: Removing PWL point (0.00164153,4.98044)
V1: Removing PWL point (0.00164371,3.31642)
V1: Removing PWL point (0.00164653,4.9738)
V1: Removing PWL point (0.00165153,5.0192)
V1: Removing PWL point (0.0016537,3.36477)
V1: Removing PWL point (0.0016537,3.36477)
V1: Removing PWL point (0.0016565,4.92634)
V1: Removing PWL point (0.0016565,4.92634)
V1: Removing PWL point (0.00165653,5.00817)
V1: Removing PWL point (0.00165653,5.01661)
V1: Removing PWL point (0.0016587,3.36991)
V1: Removing PWL point (0.00166153,5.03929)
V1: Removing PWL point (0.00166653,5.01699)
V1: Removing PWL point (0.00166653,5.02534)
V1: Removing PWL point (0.0016687,3.36735)
V1: Removing PWL point (0.00167153,5.01626)
V1: Removing PWL point (0.00167153,5.0245)
V1: Removing PWL point (0.0016737,3.36242)
V1: Removing PWL point (0.00167653,5.00251)
V1: Removing PWL point (0.0016787,3.35555)
V1: Removing PWL point (0.0016787,3.35555)
V1: Removing PWL point (0.0016815,4.92747)
V1: Removing PWL point (0.00168153,5.00741)
V1: Removing PWL point (0.00168153,5.01556)
V1: Removing PWL point (0.00168371,3.34955)
V1: Removing PWL point (0.00168653,4.99407)
V1: Removing PWL point (0.00169153,4.96934)
V1: Removing PWL point (0.00169153,4.97834)
V1: Removing PWL point (0.00169371,3.3203)
V1: Removing PWL point (0.00169871,3.33145)
V1: Removing PWL point (0.00170153,4.97739)
V1: Removing PWL point (0.0017037,3.33564)
V1: Removing PWL point (0.0017065,4.91729)
V1: Removing PWL point (0.00170653,5.0043)
V1: Removing PWL point (0.0017115,4.92492)
V1: Removing PWL point (0.00171371,3.33756)
V1: Removing PWL point (0.00171653,4.96434)
V1: Removing PWL point (0.00171653,4.97321)
V1: Removing PWL point (0.00172153,4.95875)
V1: Removing PWL point (0.00172371,3.31198)
V1: Removing PWL point (0.00172653,4.96241)
V1: Removing PWL point (0.00172871,3.31697)
V1: Removing PWL point (0.0017337,3.33574)
V1: Removing PWL point (0.00173653,4.99869)
V1: Removing PWL point (0.00174153,5.00151)
V1: Removing PWL point (0.00174371,3.32253)
V1: Removing PWL point (0.00174653,4.95014)
V1: Removing PWL point (0.00174871,3.27695)
V1: Removing PWL point (0.00175153,4.9318)
V1: Removing PWL point (0.00175371,3.27548)
V1: Removing PWL point (0.00175871,3.28698)
V1: Removing PWL point (0.00176153,4.94191)
V1: Removing PWL point (0.0017637,3.29446)
V1: Removing PWL point (0.0017665,4.88318)
V1: Removing PWL point (0.00176653,4.97365)
V1: Removing PWL point (0.00176871,3.32069)
V1: Removing PWL point (0.0017715,4.87971)
V1: Removing PWL point (0.00177371,3.30814)
V1: Removing PWL point (0.0017765,4.87827)
V1: Removing PWL point (0.00177653,4.96874)
V1: Removing PWL point (0.00178153,4.96961)
V1: Removing PWL point (0.00178371,3.29278)
V1: Removing PWL point (0.00178371,3.29278)
V1: Removing PWL point (0.00178653,4.91536)
V1: Removing PWL point (0.00178653,4.9244)
V1: Removing PWL point (0.00178653,4.9244)
V1: Removing PWL point (0.00178871,3.25869)
V1: Removing PWL point (0.00179653,4.95521)
V1: Removing PWL point (0.00179871,3.3039)
V1: Removing PWL point (0.00180153,4.96079)
V1: Removing PWL point (0.00180653,4.97905)
V1: Removing PWL point (0.00180871,3.31068)
V1: Removing PWL point (0.00181153,4.94731)
V1: Removing PWL point (0.00181371,3.27097)
V1: Removing PWL point (0.00181653,4.91267)
V1: Removing PWL point (0.00181653,4.92158)
V1: Removing PWL point (0.00181871,3.26509)
V1: Removing PWL point (0.00182153,4.9275)
V1: Removing PWL point (0.00182371,3.2798)
V1: Removing PWL point (0.00182653,4.95219)
V1: Removing PWL point (0.00183153,4.96532)
V1: Removing PWL point (0.00183652,4.95289)
V1: Removing PWL point (0.00183871,3.27951)
V1: Removing PWL point (0.0018415,4.82266)
V1: Removing PWL point (0.00184152,4.90157)
V1: Removing PWL point (0.00184153,4.90973)
V1: Removing PWL point (0.00184371,3.25185)
V1: Removing PWL point (0.00184871,3.27283)
V1: Removing PWL point (0.00185153,4.92684)
V1: Removing PWL point (0.0018565,4.85383)
V1: Removing PWL point (0.00185653,4.94215)
V1: Removing PWL point (0.0018587,3.29268)
V1: Removing PWL point (0.00186153,4.95955)
V1: Removing PWL point (0.00186371,3.28102)
V1: Removing PWL point (0.0018665,4.81774)
V1: Removing PWL point (0.00186653,4.9079)
V1: Removing PWL point (0.00187152,4.89271)
V1: Removing PWL point (0.00187153,4.90161)
V1: Removing PWL point (0.0018765,4.84853)
V1: Removing PWL point (0.0018765,4.84856)
V1: Removing PWL point (0.0018765,4.8497)
V1: Removing PWL point (0.00187653,4.93693)
V1: Removing PWL point (0.0018815,4.8499)
V1: Removing PWL point (0.00188152,4.93185)
V1: Removing PWL point (0.00188652,4.9077)
V1: Removing PWL point (0.00188653,4.91592)
V1: Removing PWL point (0.00189152,4.88283)
V1: Removing PWL point (0.00189371,3.23776)
V1: Removing PWL point (0.00189653,4.91221)
V1: Removing PWL point (0.00189871,3.2391)
V1: Removing PWL point (0.00190152,4.866)
V1: Removing PWL point (0.00190153,4.8742)
V1: Removing PWL point (0.00190371,3.21119)
V1: Removing PWL point (0.00190652,4.87211)
V1: Removing PWL point (0.00190653,4.88089)
V1: Removing PWL point (0.00191653,4.93019)
V1: Removing PWL point (0.00191871,3.26553)
V1: Removing PWL point (0.0019215,4.8306)
V1: Removing PWL point (0.00192153,4.91773)
V1: Removing PWL point (0.00192371,3.25116)
V1: Removing PWL point (0.00192652,4.89763)
V1: Removing PWL point (0.00192652,4.89763)
V1: Removing PWL point (0.00193153,4.84929)
V1: Removing PWL point (0.00193652,4.8422)
V1: Removing PWL point (0.00193652,4.85063)
V1: Removing PWL point (0.0019415,4.74752)
V1: Removing PWL point (0.00194152,4.83782)
V1: Removing PWL point (0.00194152,4.83782)
V1: Removing PWL point (0.00194371,3.18376)
V1: Removing PWL point (0.00194652,4.8632)
V1: Removing PWL point (0.00194871,3.19474)
V1: Removing PWL point (0.00195152,4.83643)
V1: Removing PWL point (0.00195652,4.8399)
V1: Removing PWL point (0.00195871,3.19453)
V1: Removing PWL point (0.00196371,3.19394)
V1: Removing PWL point (0.00196371,3.19394)
V1: Removing PWL point (0.00196652,4.84077)
V1: Removing PWL point (0.00196652,4.84972)
V1: Removing PWL point (0.00196871,3.18376)
V1: Removing PWL point (0.00197152,4.84363)
V1: Removing PWL point (0.00197371,3.19266)
V1: Removing PWL point (0.00197652,4.8598)
V1: Removing PWL point (0.00197872,3.18626)
V1: Removing PWL point (0.00198152,4.81324)
V1: Removing PWL point (0.00198652,4.82047)
V1: Removing PWL point (0.00198871,3.16638)
V1: Removing PWL point (0.00199152,4.82722)
V1: Removing PWL point (0.00199152,4.83601)
V1: Removing PWL point (0.00199371,3.16707)
V1: Removing PWL point (0.00199652,4.81395)
V1: Removing PWL point (0.00199871,3.14145)
V1: Removing PWL point (0.0020015,4.70658)
V1: Removing PWL point (0.00200152,4.79694)
V1: Removing PWL point (0.00200371,3.14149)
V1: Removing PWL point (0.00200871,3.17358)
V1: Removing PWL point (0.00201152,4.83838)
V1: Removing PWL point (0.00201152,4.84724)
V1: Removing PWL point (0.00201652,4.80347)
V1: Removing PWL point (0.00201652,4.81161)
V1: Removing PWL point (0.00201871,3.14749)
V1: Removing PWL point (0.00202152,4.81103)
V1: Removing PWL point (0.00202371,3.15638)
V1: Removing PWL point (0.00202652,4.80743)
V1: Removing PWL point (0.00202872,3.12357)
V1: Removing PWL point (0.00203152,4.75822)
V1: Removing PWL point (0.00203152,4.76633)
V1: Removing PWL point (0.00203369,3.19672)
V1: Removing PWL point (0.00204152,4.76695)
V1: Removing PWL point (0.00204152,4.77506)
V1: Removing PWL point (0.00204652,4.75988)
V1: Removing PWL point (0.00204872,3.09286)
V1: Removing PWL point (0.00205152,4.7459)
V1: Removing PWL point (0.00205152,4.75336)
V1: Removing PWL point (0.00205372,3.07615)
V1: Removing PWL point (0.00205649,4.63918)
V1: Removing PWL point (0.00205652,4.7299)
V1: Removing PWL point (0.00205871,3.08145)
V1: Removing PWL point (0.00206152,4.76916)
V1: Removing PWL point (0.00206372,3.10232)
V1: Removing PWL point (0.00206652,4.74626)
V1: Removing PWL point (0.00206652,4.7542)
V1: Removing PWL point (0.00206872,3.08084)
V1: Removing PWL point (0.00207152,4.73641)
V1: Removing PWL point (0.00207371,3.07516)
V1: Removing PWL point (0.00207652,4.74393)
V1: Removing PWL point (0.00207652,4.75189)
V1: Removing PWL point (0.00207872,3.08726)
V1: Removing PWL point (0.00208149,4.65367)
V1: Removing PWL point (0.00208152,4.73557)
V1: Removing PWL point (0.00208871,3.10356)
V1: Removing PWL point (0.00209149,4.68637)
V1: Removing PWL point (0.00209371,3.10919)
V1: Removing PWL point (0.00209652,4.75993)
V1: Removing PWL point (0.00209871,3.08371)
V1: Removing PWL point (0.00210152,4.74211)
V1: Removing PWL point (0.00210372,3.07082)
V1: Removing PWL point (0.00210649,4.6407)
V1: Removing PWL point (0.00210872,3.0449)
V1: Removing PWL point (0.00211152,4.68571)
V1: Removing PWL point (0.00211652,4.67336)
V1: Removing PWL point (0.00211872,3.02928)
V1: Removing PWL point (0.00212149,4.62197)
V1: Removing PWL point (0.00212152,4.70407)
V1: Removing PWL point (0.00212152,4.71288)
V1: Removing PWL point (0.00212372,3.0571)
V1: Removing PWL point (0.00212871,3.06727)
V1: Removing PWL point (0.00213152,4.73323)
V1: Removing PWL point (0.00213372,3.05359)
V1: Removing PWL point (0.00213372,3.05359)
V1: Removing PWL point (0.00213649,4.61089)
V1: Removing PWL point (0.00213652,4.69273)
V1: Removing PWL point (0.00213652,4.70138)
V1: Removing PWL point (0.00214152,4.65017)
V1: Removing PWL point (0.00214372,2.99019)
V1: Removing PWL point (0.00214372,2.99019)
V1: Removing PWL point (0.00214652,4.66629)
V1: Removing PWL point (0.00214872,3.01442)
V1: Removing PWL point (0.00214872,3.01442)
V1: Removing PWL point (0.00215152,4.6896)
V1: Removing PWL point (0.00215152,4.69747)
V1: Removing PWL point (0.00215652,4.7161)
V1: Removing PWL point (0.00215872,3.03499)
V1: Removing PWL point (0.00216152,4.67704)
V1: Removing PWL point (0.00216649,4.55308)
V1: Removing PWL point (0.00216652,4.64385)
V1: Removing PWL point (0.00217151,4.65247)
V1: Removing PWL point (0.00217152,4.66127)
V1: Removing PWL point (0.00217152,4.66128)
V1: Removing PWL point (0.00217649,4.60255)
V1: Removing PWL point (0.00217652,4.69349)
V1: Removing PWL point (0.00217872,3.01696)
V1: Removing PWL point (0.00218149,4.57029)
V1: Removing PWL point (0.00218152,4.65789)
V1: Removing PWL point (0.00218372,2.98023)
V1: Removing PWL point (0.00218651,4.64152)
V1: Removing PWL point (0.00218652,4.6493)
V1: Removing PWL point (0.00218872,2.98443)
V1: Removing PWL point (0.00219151,4.64914)
V1: Removing PWL point (0.00219152,4.65702)
V1: Removing PWL point (0.00219372,2.98407)
V1: Removing PWL point (0.00219651,4.63418)
V1: Removing PWL point (0.00219652,4.64196)
V1: Removing PWL point (0.00219872,2.96929)
V1: Removing PWL point (0.00220151,4.63201)
V1: Removing PWL point (0.00220152,4.64003)
V1: Removing PWL point (0.00220372,2.96209)
V1: Removing PWL point (0.00220872,2.93919)
V1: Removing PWL point (0.00221152,4.60672)
V1: Removing PWL point (0.00221651,4.59225)
V1: Removing PWL point (0.00222151,4.57749)
V1: Removing PWL point (0.00222372,2.90554)
V1: Removing PWL point (0.00222649,4.48769)
V1: Removing PWL point (0.00222651,4.57883)
V1: Removing PWL point (0.00223151,4.60658)
V1: Removing PWL point (0.00223372,2.95013)
V1: Removing PWL point (0.00223651,4.63125)
V1: Removing PWL point (0.00224149,4.51913)
V1: Removing PWL point (0.00224151,4.60995)
V1: Removing PWL point (0.00224372,2.9255)
V1: Removing PWL point (0.00224651,4.58229)
V1: Removing PWL point (0.00224872,2.90363)
V1: Removing PWL point (0.00225151,4.56667)
V1: Removing PWL point (0.00225373,2.88055)
V1: Removing PWL point (0.00225873,2.85362)
V1: Removing PWL point (0.00226651,4.5093)
V1: Removing PWL point (0.00226872,2.84887)
V1: Removing PWL point (0.00227151,4.52374)
V1: Removing PWL point (0.00227651,4.50602)
V1: Removing PWL point (0.00227651,4.51448)
V1: Removing PWL point (0.00227651,4.51448)
V1: Removing PWL point (0.00227873,2.83995)
V1: Removing PWL point (0.00228151,4.51077)
V1: Removing PWL point (0.00228372,2.85564)
V1: Removing PWL point (0.00228651,4.55096)
V1: Removing PWL point (0.00228873,2.87177)
V1: Removing PWL point (0.00229151,4.50891)
V1: Removing PWL point (0.00229151,4.51661)
V1: Removing PWL point (0.00229373,2.82192)
V1: Removing PWL point (0.00229651,4.47512)
V1: Removing PWL point (0.00229872,2.81619)
V1: Removing PWL point (0.00230148,4.41045)
V1: Removing PWL point (0.00230372,2.83598)
V1: Removing PWL point (0.00230651,4.51931)
V1: Removing PWL point (0.00231148,4.39538)
V1: Removing PWL point (0.00231651,4.50454)
V1: Removing PWL point (0.00231873,2.83075)
V1: Removing PWL point (0.00232148,4.39887)
V1: Removing PWL point (0.00232151,4.48634)
V1: Removing PWL point (0.00232373,2.78653)
V1: Removing PWL point (0.00232648,4.34478)
V1: Removing PWL point (0.00232872,2.77217)
V1: Removing PWL point (0.00233151,4.46048)
V1: Removing PWL point (0.00233372,2.80691)
V1: Removing PWL point (0.00233651,4.47944)
V1: Removing PWL point (0.00233651,4.48717)
V1: Removing PWL point (0.00234151,4.47162)
V1: Removing PWL point (0.00234651,4.45625)
V1: Removing PWL point (0.00234651,4.46414)
V1: Removing PWL point (0.00234873,2.77505)
V1: Removing PWL point (0.00235151,4.42553)
V1: Removing PWL point (0.00235373,2.75152)
V1: Removing PWL point (0.00235648,4.33135)
V1: Removing PWL point (0.00235651,4.42059)
V1: Removing PWL point (0.00236151,4.4132)
V1: Removing PWL point (0.00236373,2.74409)
V1: Removing PWL point (0.0023665,4.42228)
V1: Removing PWL point (0.00236873,2.74759)
V1: Removing PWL point (0.00237151,4.40498)
V1: Removing PWL point (0.00237373,2.72914)
V1: Removing PWL point (0.0023765,4.40283)
V1: Removing PWL point (0.00237873,2.73772)
V1: Removing PWL point (0.00238151,4.41267)
V1: Removing PWL point (0.00238373,2.73173)
V1: Removing PWL point (0.00238648,4.31011)
V1: Removing PWL point (0.00238651,4.39939)
V1: Removing PWL point (0.00238873,2.7029)
V1: Removing PWL point (0.0023915,4.34687)
V1: Removing PWL point (0.00239151,4.35438)
V1: Removing PWL point (0.00239373,2.68847)
V1: Removing PWL point (0.0023965,4.38865)
V1: Removing PWL point (0.0024015,4.35479)
V1: Removing PWL point (0.0024015,4.36299)
V1: Removing PWL point (0.00240373,2.66811)
V1: Removing PWL point (0.0024065,4.32375)
V1: Removing PWL point (0.00241148,4.26864)
V1: Removing PWL point (0.0024115,4.34858)
V1: Removing PWL point (0.0024165,4.35003)
V1: Removing PWL point (0.00241873,2.66093)
V1: Removing PWL point (0.0024215,4.32989)
V1: Removing PWL point (0.00242373,2.64702)
V1: Removing PWL point (0.00243373,2.67224)
V1: Removing PWL point (0.0024365,4.34177)
V1: Removing PWL point (0.00243873,2.6457)
V1: Removing PWL point (0.0024415,4.29538)
V1: Removing PWL point (0.0024415,4.30376)
V1: Removing PWL point (0.00244373,2.62008)
V1: Removing PWL point (0.0024465,4.3051)
V1: Removing PWL point (0.00244873,2.63716)
V1: Removing PWL point (0.0024515,4.32012)
V1: Removing PWL point (0.0024565,4.29664)
V1: Removing PWL point (0.0024565,4.30416)
V1: Removing PWL point (0.00245873,2.61703)
V1: Removing PWL point (0.00246373,2.59266)
V1: Removing PWL point (0.0024665,4.26226)
V1: Removing PWL point (0.0024665,4.26226)
V1: Removing PWL point (0.00246873,2.58006)
V1: Removing PWL point (0.00247873,2.58477)
V1: Removing PWL point (0.0024865,4.24229)
V1: Removing PWL point (0.00248873,2.55903)
V1: Removing PWL point (0.00249147,4.15701)
V1: Removing PWL point (0.0024915,4.24644)
V1: Removing PWL point (0.00249374,2.56083)
V1: Removing PWL point (0.00249647,4.1409)
V1: Removing PWL point (0.0024965,4.22418)
V1: Removing PWL point (0.0024965,4.2324)
V1: Removing PWL point (0.00249873,2.55992)
V1: Removing PWL point (0.0025015,4.24393)
V1: Removing PWL point (0.0025015,4.25129)
V1: Removing PWL point (0.0025015,4.2513)
V1: Removing PWL point (0.00250647,4.13932)
V1: Removing PWL point (0.0025065,4.22855)
V1: Removing PWL point (0.00250873,2.54312)
V1: Removing PWL point (0.0025115,4.22632)
V1: Removing PWL point (0.00251374,2.52913)
V1: Removing PWL point (0.0025165,4.1775)
V1: Removing PWL point (0.0025165,4.18503)
V1: Removing PWL point (0.0025215,4.13818)
V1: Removing PWL point (0.00252374,2.46516)
V1: Removing PWL point (0.00252374,2.45051)
V1: Removing PWL point (0.00252874,2.48696)
V1: Removing PWL point (0.00253147,4.09741)
V1: Removing PWL point (0.00253149,4.17749)
V1: Removing PWL point (0.00253374,2.51029)
V1: Removing PWL point (0.00253649,4.18201)
V1: Removing PWL point (0.0025365,4.18999)
V1: Removing PWL point (0.00254147,4.07085)
V1: Removing PWL point (0.0025415,4.15507)
V1: Removing PWL point (0.0025415,4.16243)
V1: Removing PWL point (0.00254374,2.47797)
V1: Removing PWL point (0.00254649,4.1542)
V1: Removing PWL point (0.00254873,2.48992)
V1: Removing PWL point (0.00255149,4.17553)
V1: Removing PWL point (0.00255649,4.18008)
V1: Removing PWL point (0.0025565,4.18749)
V1: Removing PWL point (0.00255874,2.47746)
V1: Removing PWL point (0.00255875,2.4611)
V1: Removing PWL point (0.00256149,4.11317)
V1: Removing PWL point (0.0025615,4.12125)
V1: Removing PWL point (0.00256374,2.41031)
V1: Removing PWL point (0.0025665,4.11137)
V1: Removing PWL point (0.00257149,4.09352)
V1: Removing PWL point (0.00257149,4.10079)
V1: Removing PWL point (0.00257374,2.40341)
V1: Removing PWL point (0.00257649,4.07549)
V1: Removing PWL point (0.00258149,4.0608)
V1: Removing PWL point (0.00258649,4.06373)
V1: Removing PWL point (0.00259149,4.06905)
V1: Removing PWL point (0.00259149,4.07717)
V1: Removing PWL point (0.00259374,2.39746)
V1: Removing PWL point (0.00259374,2.38308)
V1: Removing PWL point (0.00259649,4.08927)
V1: Removing PWL point (0.00259874,2.40924)
V1: Removing PWL point (0.00259874,2.39449)
V1: Removing PWL point (0.00260149,4.08377)
V1: Removing PWL point (0.00260374,2.39054)
V1: Removing PWL point (0.00260649,4.04501)
V1: Removing PWL point (0.00260649,4.05293)
V1: Removing PWL point (0.00260874,2.35431)
V1: Removing PWL point (0.00261149,4.03408)
V1: Removing PWL point (0.00261374,2.34538)
V1: Removing PWL point (0.00261375,2.329)
V1: Removing PWL point (0.00261649,4.01481)
V1: Removing PWL point (0.00261649,4.02145)
V1: Removing PWL point (0.00261875,2.32097)
V1: Removing PWL point (0.00262149,3.98275)
V1: Removing PWL point (0.00262149,3.99004)
V1: Removing PWL point (0.00262375,2.29515)
V1: Removing PWL point (0.00262375,2.28047)
V1: Removing PWL point (0.00262649,3.98008)
V1: Removing PWL point (0.00262875,2.28235)
V1: Removing PWL point (0.00263149,3.99233)
V1: Removing PWL point (0.00263375,2.28995)
V1: Removing PWL point (0.00263875,2.29077)
V1: Removing PWL point (0.00264146,3.91002)
V1: Removing PWL point (0.00264149,3.99066)
V1: Removing PWL point (0.00264374,2.32288)
V1: Removing PWL point (0.00264649,4.02358)
V1: Removing PWL point (0.00265149,3.96567)
V1: Removing PWL point (0.00265649,3.9557)
V1: Removing PWL point (0.00265649,3.96278)
V1: Removing PWL point (0.00265875,2.26674)
V1: Removing PWL point (0.00266149,3.96638)
V1: Removing PWL point (0.00266149,3.97366)
V1: Removing PWL point (0.00266375,2.27394)
V1: Removing PWL point (0.00266375,2.25888)
V1: Removing PWL point (0.00266649,3.92779)
V1: Removing PWL point (0.00266649,3.93561)
V1: Removing PWL point (0.00266875,2.23514)
V1: Removing PWL point (0.00266875,2.2205)
V1: Removing PWL point (0.00267149,3.91296)
V1: Removing PWL point (0.00267149,3.92002)
V1: Removing PWL point (0.00267374,2.24971)
V1: Removing PWL point (0.00267375,2.23483)
V1: Removing PWL point (0.00267649,3.94969)
V1: Removing PWL point (0.00267876,2.23567)
V1: Removing PWL point (0.00268375,2.20286)
V1: Removing PWL point (0.00268875,2.18815)
V1: Removing PWL point (0.00268876,2.17258)
V1: Removing PWL point (0.00269375,2.1825)
V1: Removing PWL point (0.00269648,3.89035)
V1: Removing PWL point (0.00270149,3.906)
V1: Removing PWL point (0.00270375,2.20128)
V1: Removing PWL point (0.00270376,2.18724)
V1: Removing PWL point (0.00270646,3.78136)
V1: Removing PWL point (0.00270649,3.87019)
V1: Removing PWL point (0.00270875,2.17202)
V1: Removing PWL point (0.00271148,3.88562)
V1: Removing PWL point (0.00271149,3.8927)
V1: Removing PWL point (0.00271375,2.19325)
V1: Removing PWL point (0.00271376,2.17909)
V1: Removing PWL point (0.00271648,3.85769)
V1: Removing PWL point (0.00271875,2.15001)
V1: Removing PWL point (0.00271876,2.13468)
V1: Removing PWL point (0.00272148,3.83245)
V1: Removing PWL point (0.00272148,3.83245)
V1: Removing PWL point (0.00272375,2.13789)
V1: Removing PWL point (0.00272648,3.81416)
V1: Removing PWL point (0.00272648,3.82184)
V1: Removing PWL point (0.00273148,3.81083)
V1: Removing PWL point (0.00273148,3.81766)
V1: Removing PWL point (0.00273148,3.81766)
V1: Removing PWL point (0.00273375,2.12666)
V1: Removing PWL point (0.00273375,2.12666)
V1: Removing PWL point (0.00273648,3.81414)
V1: Removing PWL point (0.00273875,2.12034)
V1: Removing PWL point (0.00274375,2.13784)
V1: Removing PWL point (0.00274648,3.80149)
V1: Removing PWL point (0.00274875,2.09345)
V1: Removing PWL point (0.00275148,3.80841)
V1: Removing PWL point (0.00275648,3.80731)
V1: Removing PWL point (0.00275875,2.10063)
V1: Removing PWL point (0.00276375,2.08502)
V1: Removing PWL point (0.00276648,3.78907)
V1: Removing PWL point (0.00276876,2.08539)
V1: Removing PWL point (0.00276876,2.08539)
V1: Removing PWL point (0.00277148,3.75539)
V1: Removing PWL point (0.00277648,3.72656)
V1: Removing PWL point (0.00277648,3.73311)
V1: Removing PWL point (0.00277876,2.0259)
V1: Removing PWL point (0.00277876,2.0259)
V1: Removing PWL point (0.00277876,2.01156)
V1: Removing PWL point (0.00278376,2.00552)
V1: Removing PWL point (0.00278648,3.7006)
V1: Removing PWL point (0.00278876,1.99907)
V1: Removing PWL point (0.00278876,1.98475)
V1: Removing PWL point (0.00279145,3.58606)
V1: Removing PWL point (0.00279148,3.67832)
V1: Removing PWL point (0.00279148,3.67832)
V1: Removing PWL point (0.00279376,1.97523)
V1: Removing PWL point (0.00279376,1.96143)
V1: Removing PWL point (0.00279648,3.66139)
V1: Removing PWL point (0.00279876,1.97839)
V1: Removing PWL point (0.00280148,3.68592)
V1: Removing PWL point (0.00280376,2.00706)
V1: Removing PWL point (0.00280376,1.99291)
V1: Removing PWL point (0.00280645,3.60786)
V1: Removing PWL point (0.00280648,3.69361)
V1: Removing PWL point (0.00280648,3.70016)
V1: Removing PWL point (0.00280876,2.00711)
V1: Removing PWL point (0.00280876,1.99335)
V1: Removing PWL point (0.00281376,2.00144)
V1: Removing PWL point (0.00281376,2.00144)
V1: Removing PWL point (0.00282145,3.60727)
V1: Removing PWL point (0.00282148,3.69772)
V1: Removing PWL point (0.00282647,3.6519)
V1: Removing PWL point (0.00282648,3.65922)
V1: Removing PWL point (0.00282876,1.95074)
V1: Removing PWL point (0.00282876,1.93621)
V1: Removing PWL point (0.00283147,3.62496)
V1: Removing PWL point (0.00283148,3.63135)
V1: Removing PWL point (0.00283648,3.64099)
V1: Removing PWL point (0.00283876,1.9409)
V1: Removing PWL point (0.00284145,3.52949)
V1: Removing PWL point (0.00284647,3.57365)
V1: Removing PWL point (0.00284876,1.87546)
V1: Removing PWL point (0.00284876,1.87546)
V1: Removing PWL point (0.00284877,1.86076)
V1: Removing PWL point (0.00285147,3.5651)
V1: Removing PWL point (0.00285376,1.8668)
V1: Removing PWL point (0.00285645,3.50432)
V1: Removing PWL point (0.00285876,1.8964)
V1: Removing PWL point (0.00286376,1.87993)
V1: Removing PWL point (0.00286376,1.86614)
V1: Removing PWL point (0.00287147,3.56177)
V1: Removing PWL point (0.00287147,3.56805)
V1: Removing PWL point (0.00288147,3.48995)
V1: Removing PWL point (0.00288147,3.49612)
V1: Removing PWL point (0.00288647,3.50044)
V1: Removing PWL point (0.00288647,3.50683)
V1: Removing PWL point (0.00288877,1.80056)
V1: Removing PWL point (0.00289147,3.51593)
V1: Removing PWL point (0.00289647,3.52927)
V1: Removing PWL point (0.00289877,1.81425)
V1: Removing PWL point (0.00289877,1.81425)
V1: Removing PWL point (0.00290147,3.50932)
V1: Removing PWL point (0.00290147,3.51644)
V1: Removing PWL point (0.00290377,1.8052)
V1: Removing PWL point (0.00290647,3.51992)
V1: Removing PWL point (0.00290877,1.81131)
V1: Removing PWL point (0.00291144,3.39927)
V1: Removing PWL point (0.00291147,3.49192)
V1: Removing PWL point (0.00291644,3.35223)
V1: Removing PWL point (0.00291644,3.35414)
V1: Removing PWL point (0.00291647,3.43865)
V1: Removing PWL point (0.00291647,3.44494)
V1: Removing PWL point (0.00292147,3.45099)
V1: Removing PWL point (0.00292376,1.76245)
V1: Removing PWL point (0.00292377,1.74905)
V1: Removing PWL point (0.00292644,3.37612)
V1: Removing PWL point (0.00292647,3.46283)
V1: Removing PWL point (0.00292647,3.46908)
V1: Removing PWL point (0.00293147,3.45639)
V1: Removing PWL point (0.00293147,3.46369)
V1: Removing PWL point (0.00293377,1.74429)
V1: Removing PWL point (0.00293377,1.73034)
V1: Removing PWL point (0.00293877,1.70899)
V1: Removing PWL point (0.00294147,3.40871)
V1: Removing PWL point (0.00294377,1.70193)
V1: Removing PWL point (0.00294877,1.72141)
V1: Removing PWL point (0.00294877,1.70812)
V1: Removing PWL point (0.00295147,3.41963)
V1: Removing PWL point (0.00295646,3.42175)
V1: Removing PWL point (0.00295647,3.42788)
V1: Removing PWL point (0.00296377,1.67675)
V1: Removing PWL point (0.00296378,1.66314)
V1: Removing PWL point (0.00296646,3.34753)
V1: Removing PWL point (0.00296647,3.35432)
V1: Removing PWL point (0.00296877,1.64658)
V1: Removing PWL point (0.00296877,1.63361)
V1: Removing PWL point (0.00297144,3.25695)
V1: Removing PWL point (0.00297146,3.34194)
V1: Removing PWL point (0.00297146,3.34759)
V1: Removing PWL point (0.00297377,1.64755)
V1: Removing PWL point (0.00297877,1.6697)
V1: Removing PWL point (0.00298146,3.34546)
V1: Removing PWL point (0.00298646,3.30105)
V1: Removing PWL point (0.00298877,1.61023)
V1: Removing PWL point (0.00299146,3.31579)
V1: Removing PWL point (0.00299146,3.32262)
V1: Removing PWL point (0.00299646,3.28987)
V1: Removing PWL point (0.00299646,3.29656)
V1: Removing PWL point (0.00299877,1.58324)
V1: Removing PWL point (0.00300374,1.70817)
V1: Removing PWL point (0.00300377,1.61406)
V1: Removing PWL point (0.00300377,1.61406)
V1: Removing PWL point (0.00300646,3.31318)
V1: Removing PWL point (0.00300877,1.59044)
V1: Removing PWL point (0.00301146,3.2656)
V1: Removing PWL point (0.00301377,1.55325)
V1: Removing PWL point (0.00301643,3.16008)
V1: Removing PWL point (0.00301646,3.24736)
V1: Removing PWL point (0.00301646,3.25301)
V1: Removing PWL point (0.00302146,3.23519)
V1: Removing PWL point (0.00302378,1.51612)
V1: Removing PWL point (0.00302646,3.19352)
V1: Removing PWL point (0.00302646,3.19978)
V1: Removing PWL point (0.00303146,3.22286)
V1: Removing PWL point (0.00303146,3.22921)
V1: Removing PWL point (0.00303378,1.53268)
V1: Removing PWL point (0.00303646,3.22473)
V1: Removing PWL point (0.00303878,1.51255)
V1: Removing PWL point (0.00303878,1.50003)
V1: Removing PWL point (0.00304146,3.2019)
V1: Removing PWL point (0.00304146,3.20755)
V1: Removing PWL point (0.00304378,1.49115)
V1: Removing PWL point (0.00304646,3.20424)
V1: Removing PWL point (0.00304878,1.4898)
V1: Removing PWL point (0.00305146,3.16522)
V1: Removing PWL point (0.00305646,3.18462)
V1: Removing PWL point (0.00305878,1.47525)
V1: Removing PWL point (0.00306378,1.43805)
V1: Removing PWL point (0.00306378,1.42596)
V1: Removing PWL point (0.00306877,1.43549)
V1: Removing PWL point (0.00307143,3.06728)
V1: Removing PWL point (0.00307145,3.15425)
V1: Removing PWL point (0.00307146,3.16071)
V1: Removing PWL point (0.00307378,1.46355)
V1: Removing PWL point (0.00307378,1.45103)
V1: Removing PWL point (0.00307645,3.15516)
V1: Removing PWL point (0.00307646,3.16171)
V1: Removing PWL point (0.00307878,1.43984)
V1: Removing PWL point (0.00308145,3.14857)
V1: Removing PWL point (0.00308146,3.15506)
V1: Removing PWL point (0.00308378,1.43421)
V1: Removing PWL point (0.00308378,1.42124)
V1: Removing PWL point (0.00308646,3.11778)
V1: Removing PWL point (0.00308646,3.11778)
V1: Removing PWL point (0.00308878,1.39126)
V1: Removing PWL point (0.00309145,3.07133)
V1: Removing PWL point (0.00309378,1.35523)
V1: Removing PWL point (0.00309379,1.34273)
V1: Removing PWL point (0.00309643,2.95757)
V1: Removing PWL point (0.00309645,3.05088)
V1: Removing PWL point (0.00309878,1.34322)
V1: Removing PWL point (0.00310378,1.32599)
V1: Removing PWL point (0.00310645,3.01151)
V1: Removing PWL point (0.00310645,3.0175)
V1: Removing PWL point (0.00310878,1.3032)
V1: Removing PWL point (0.00311378,1.30648)
V1: Removing PWL point (0.00311379,1.29491)
V1: Removing PWL point (0.00311645,3.01308)
V1: Removing PWL point (0.00311879,1.29265)
V1: Removing PWL point (0.00311879,1.28082)
V1: Removing PWL point (0.00312145,2.97696)
V1: Removing PWL point (0.00312145,2.98231)
V1: Removing PWL point (0.00312378,1.27342)
V1: Removing PWL point (0.00312645,2.984)
V1: Removing PWL point (0.00313145,3.03134)
V1: Removing PWL point (0.00313379,1.31547)
V1: Removing PWL point (0.00313379,1.30345)
V1: Removing PWL point (0.00313645,2.98713)
V1: Removing PWL point (0.00313645,2.99321)
V1: Removing PWL point (0.00314145,2.99317)
V1: Removing PWL point (0.00314379,1.2752)
V1: Removing PWL point (0.00314645,2.94501)
V1: Removing PWL point (0.00314645,2.95078)
V1: Removing PWL point (0.00315145,2.95125)
V1: Removing PWL point (0.00315379,1.23903)
V1: Removing PWL point (0.00315379,1.22652)
V1: Removing PWL point (0.00315645,2.93213)
V1: Removing PWL point (0.00315645,2.93213)
V1: Removing PWL point (0.00315879,1.21972)
V1: Removing PWL point (0.00316145,2.9258)
V1: Removing PWL point (0.00316379,1.22029)
V1: Removing PWL point (0.00316645,2.91467)
V1: Removing PWL point (0.00317145,2.89704)
V1: Removing PWL point (0.00317642,2.78267)
V1: Removing PWL point (0.00317645,2.87137)
V1: Removing PWL point (0.00317879,1.16185)
V1: Removing PWL point (0.00318379,1.15886)
V1: Removing PWL point (0.00318644,2.86993)
V1: Removing PWL point (0.00318876,1.26041)
V1: Removing PWL point (0.00318879,1.16715)
V1: Removing PWL point (0.00319142,2.77284)
V1: Removing PWL point (0.00319644,2.86397)
V1: Removing PWL point (0.00319644,2.8697)
V1: Removing PWL point (0.00319879,1.16459)
V1: Removing PWL point (0.00320379,1.16433)
V1: Removing PWL point (0.00320379,1.1529)
V1: Removing PWL point (0.00320644,2.86446)
V1: Removing PWL point (0.0032088,1.11901)
V1: Removing PWL point (0.00321142,2.72117)
V1: Removing PWL point (0.00321144,2.81476)
V1: Removing PWL point (0.00321644,2.80108)
V1: Removing PWL point (0.00321879,1.08497)
V1: Removing PWL point (0.00322144,2.78487)
V1: Removing PWL point (0.00322144,2.79038)
V1: Removing PWL point (0.00322379,1.07983)
V1: Removing PWL point (0.00322644,2.78499)
V1: Removing PWL point (0.00322879,1.06741)
V1: Removing PWL point (0.00323144,2.75224)
V1: Removing PWL point (0.00323144,2.75773)
V1: Removing PWL point (0.00323144,2.75774)
V1: Removing PWL point (0.00323379,1.03524)
V1: Removing PWL point (0.00323644,2.74301)
V1: Removing PWL point (0.00323879,1.02779)
V1: Removing PWL point (0.00324141,2.64323)
V1: Removing PWL point (0.00324144,2.73509)
V1: Removing PWL point (0.00324379,1.0201)
V1: Removing PWL point (0.00324644,2.72716)
V1: Removing PWL point (0.0032488,1.00809)
V1: Removing PWL point (0.0032488,0.996814)
V1: Removing PWL point (0.00325144,2.70446)
V1: Removing PWL point (0.00325144,2.70962)
V1: Removing PWL point (0.00325379,1.0033)
V1: Removing PWL point (0.00325379,1.0033)
V1: Removing PWL point (0.0032588,1.01026)
V1: Removing PWL point (0.00326141,2.60705)
V1: Removing PWL point (0.00326144,2.69276)
V1: Removing PWL point (0.00326144,2.69732)
V1: Removing PWL point (0.00326644,2.69679)
V1: Removing PWL point (0.00327144,2.65782)
V1: Removing PWL point (0.00327144,2.66234)
V1: Removing PWL point (0.0032738,0.939215)
V1: Removing PWL point (0.0032738,0.939214)
V1: Removing PWL point (0.0032738,0.929193)
V1: Removing PWL point (0.00327644,2.65141)
V1: Removing PWL point (0.0032788,0.942116)
V1: Removing PWL point (0.0032788,0.930901)
V1: Removing PWL point (0.00328144,2.6554)
V1: Removing PWL point (0.0032838,0.944966)
V1: Removing PWL point (0.0032838,0.944966)
V1: Removing PWL point (0.0032838,0.93425)
V1: Removing PWL point (0.00328644,2.6567)
V1: Removing PWL point (0.0032888,0.92499)
V1: Removing PWL point (0.0032888,0.914767)
V1: Removing PWL point (0.00329144,2.61102)
V1: Removing PWL point (0.0032938,0.900936)
V1: Removing PWL point (0.00329643,2.6235)
V1: Removing PWL point (0.0032988,0.920132)
V1: Removing PWL point (0.00330144,2.6303)
V1: Removing PWL point (0.0033038,0.896965)
V1: Removing PWL point (0.0033088,0.871657)
V1: Removing PWL point (0.0033088,0.86033)
V1: Removing PWL point (0.00331143,2.56099)
V1: Removing PWL point (0.00331143,2.56191)
V1: Removing PWL point (0.00331143,2.56583)
V1: Removing PWL point (0.00331643,2.53091)
V1: Removing PWL point (0.0033188,0.818242)
V1: Removing PWL point (0.0033238,0.821434)
V1: Removing PWL point (0.0033238,0.811384)
V1: Removing PWL point (0.00332643,2.54008)
V1: Removing PWL point (0.0033288,0.818464)
V1: Removing PWL point (0.00333143,2.54347)
V1: Removing PWL point (0.0033338,0.821559)
V1: Removing PWL point (0.00333643,2.5185)
V1: Removing PWL point (0.00333643,2.52306)
V1: Removing PWL point (0.0033388,0.800073)
V1: Removing PWL point (0.0033388,0.800073)
V1: Removing PWL point (0.00333881,0.7903)
V1: Removing PWL point (0.0033438,0.79441)
V1: Removing PWL point (0.00334643,2.50208)
V1: Removing PWL point (0.00334643,2.50689)
V1: Removing PWL point (0.0033488,0.791816)
V1: Removing PWL point (0.00335143,2.50454)
V1: Removing PWL point (0.0033538,0.779195)
V1: Removing PWL point (0.00335381,0.769421)
V1: Removing PWL point (0.00335881,0.753459)
V1: Removing PWL point (0.00335881,0.743126)
V1: Removing PWL point (0.00336143,2.44924)
V1: Removing PWL point (0.00336381,0.708814)
V1: Removing PWL point (0.00336643,2.42306)
V1: Removing PWL point (0.0033688,0.716968)
V1: Removing PWL point (0.0033688,0.716968)
V1: Removing PWL point (0.00337143,2.4449)
V1: Removing PWL point (0.00337143,2.44858)
V1: Removing PWL point (0.00337381,0.734925)
V1: Removing PWL point (0.00337643,2.462)
V1: Removing PWL point (0.00337881,0.715793)
V1: Removing PWL point (0.0033864,2.27622)
V1: Removing PWL point (0.00338643,2.37081)
V1: Removing PWL point (0.00338881,0.658825)
V1: Removing PWL point (0.00339143,2.37637)
V1: Removing PWL point (0.00339381,0.653842)
V1: Removing PWL point (0.00339381,0.644599)
V1: Removing PWL point (0.00339643,2.35821)
V1: Removing PWL point (0.00340381,0.613133)
V1: Removing PWL point (0.0034064,2.22396)
V1: Removing PWL point (0.00340881,0.601719)
V1: Removing PWL point (0.00340881,0.601719)
V1: Removing PWL point (0.00341142,2.33232)
V1: Removing PWL point (0.00341381,0.606024)
V1: Removing PWL point (0.00341381,0.606024)
V1: Removing PWL point (0.00341642,2.30126)
V1: Removing PWL point (0.00341881,0.584831)
V1: Removing PWL point (0.00342142,2.31161)
V1: Removing PWL point (0.00342381,0.600976)
V1: Removing PWL point (0.00342642,2.31868)
V1: Removing PWL point (0.00342881,0.598308)
V1: Removing PWL point (0.00342881,0.598308)
V1: Removing PWL point (0.00343142,2.30484)
V1: Removing PWL point (0.00343382,0.568569)
V1: Removing PWL point (0.00343382,0.558326)
V1: Removing PWL point (0.00343642,2.24954)
V1: Removing PWL point (0.00343642,2.25262)
V1: Removing PWL point (0.00344142,2.25804)
V1: Removing PWL point (0.00344381,0.542721)
V1: Removing PWL point (0.00344642,2.24766)
V1: Removing PWL point (0.00345142,2.24712)
V1: Removing PWL point (0.00345381,0.525929)
V1: Removing PWL point (0.00345639,2.14399)
V1: Removing PWL point (0.00345642,2.231)
V1: Removing PWL point (0.00345642,2.23498)
V1: Removing PWL point (0.00345881,0.506955)
V1: Removing PWL point (0.00346142,2.21315)
V1: Removing PWL point (0.00346382,0.478674)
V1: Removing PWL point (0.00346382,0.469413)
V1: Removing PWL point (0.00346642,2.17238)
V1: Removing PWL point (0.00346881,0.451917)
V1: Removing PWL point (0.00347381,0.47083)
V1: Removing PWL point (0.00347381,0.47083)
V1: Removing PWL point (0.00347642,2.19541)
V1: Removing PWL point (0.00347882,0.472469)
V1: Removing PWL point (0.00348142,2.16489)
V1: Removing PWL point (0.00348382,0.416922)
V1: Removing PWL point (0.00348382,0.408102)
V1: Removing PWL point (0.00348642,2.10808)
V1: Removing PWL point (0.00348882,0.395221)
V1: Removing PWL point (0.00349142,2.12688)
V1: Removing PWL point (0.00349142,2.12972)
V1: Removing PWL point (0.00349382,0.401987)
V1: Removing PWL point (0.00349382,0.401987)
V1: Removing PWL point (0.00349642,2.1005)
V1: Removing PWL point (0.00349642,2.1005)
V1: Removing PWL point (0.00349882,0.369072)
V1: Removing PWL point (0.00350141,2.09665)
V1: Removing PWL point (0.00350639,1.99509)
V1: Removing PWL point (0.00350641,2.08691)
V1: Removing PWL point (0.00350642,2.08972)
V1: Removing PWL point (0.00351141,2.07264)
V1: Removing PWL point (0.00351382,0.357114)
V1: Removing PWL point (0.00351382,0.357114)
V1: Removing PWL point (0.00351382,0.34846)
V1: Removing PWL point (0.00351641,2.08296)
V1: Removing PWL point (0.00351641,2.08575)
V1: Removing PWL point (0.00351882,0.3718)
V1: Removing PWL point (0.00351882,0.363143)
V1: Removing PWL point (0.00352382,0.349125)
V1: Removing PWL point (0.00352641,2.03602)
V1: Removing PWL point (0.00352641,2.03942)
V1: Removing PWL point (0.00352882,0.297139)
V1: Removing PWL point (0.00352882,0.297139)
V1: Removing PWL point (0.00353141,2.01686)
V1: Removing PWL point (0.00353383,0.278425)
V1: Removing PWL point (0.00353883,0.236111)
V1: Removing PWL point (0.00354141,1.95778)
V1: Removing PWL point (0.00354141,1.96021)
V1: Removing PWL point (0.00354638,1.86881)
V1: Removing PWL point (0.00354641,1.96041)
V1: Removing PWL point (0.00355141,1.94193)
V1: Removing PWL point (0.00355141,1.94449)
V1: Removing PWL point (0.00355382,0.2285)
V1: Removing PWL point (0.00355638,1.88554)
V1: Removing PWL point (0.00355641,1.97503)
V1: Removing PWL point (0.00355882,0.266277)
V1: Removing PWL point (0.00355882,0.266277)
V1: Removing PWL point (0.00355882,0.266277)
V1: Removing PWL point (0.00355882,0.266277)
V1: Removing PWL point (0.00355883,0.257553)
V1: Removing PWL point (0.00356141,1.98203)
V1: Removing PWL point (0.00356383,0.238427)
V1: Removing PWL point (0.00356383,0.238427)
V1: Removing PWL point (0.00356383,0.230759)
V1: Removing PWL point (0.00356383,0.230759)
V1: Removing PWL point (0.00356641,1.93389)
V1: Removing PWL point (0.00356883,0.196111)
V1: Removing PWL point (0.00357141,1.90451)
V1: Removing PWL point (0.00357641,1.89932)
V1: Removing PWL point (0.00357883,0.169814)
V1: Removing PWL point (0.00357883,0.161444)
V1: Removing PWL point (0.00358141,1.87879)
V1: Removing PWL point (0.00358383,0.156)
V1: Removing PWL point (0.00358638,1.79725)
V1: Removing PWL point (0.00358641,1.88915)
V1: Removing PWL point (0.00358641,1.89005)
V1: Removing PWL point (0.00358883,0.157383)
V1: Removing PWL point (0.00359141,1.86844)
V1: Removing PWL point (0.00359141,1.87056)
V1: Removing PWL point (0.00359141,1.87056)
V1: Removing PWL point (0.00359641,1.83063)
V1: Removing PWL point (0.00359641,1.8326)
V1: Removing PWL point (0.00359883,0.101194)
V1: Removing PWL point (0.00359883,0.0938798)
V1: Removing PWL point (0.00360141,1.82011)
V1: Removing PWL point (0.00360383,0.0929502)
V1: Removing PWL point (0.00360641,1.8059)
V1: Removing PWL point (0.00360883,0.090888)
V1: Removing PWL point (0.00361138,1.7282)
V1: Removing PWL point (0.0036114,1.82132)
V1: Removing PWL point (0.00361141,1.82343)
V1: Removing PWL point (0.00361383,0.108559)
V1: Removing PWL point (0.00361383,0.10028)
V1: Removing PWL point (0.0036164,1.8283)
V1: Removing PWL point (0.0036164,1.83059)
V1: Removing PWL point (0.00362383,0.0404086)
V1: Removing PWL point (0.00362383,0.0404086)
V1: Removing PWL point (0.00362383,0.0404085)
V1: Removing PWL point (0.00362383,0.0320195)
V1: Removing PWL point (0.00362383,0.0320195)
V1: Removing PWL point (0.0036264,1.74778)
V1: Removing PWL point (0.00362883,0.0332467)
V1: Removing PWL point (0.0036314,1.76938)
V1: Removing PWL point (0.00363383,0.0502197)
V1: Removing PWL point (0.00363383,0.0502196)
V1: Removing PWL point (0.00363383,0.0424052)
V1: Removing PWL point (0.0036364,1.76196)
V1: Removing PWL point (0.0036364,1.76385)
V1: Removing PWL point (0.0036414,1.71869)
V1: Removing PWL point (0.00364384,-0.0214625)
V1: Removing PWL point (0.00364384,-0.0214626)
V1: Removing PWL point (0.00364384,-0.0290161)
V1: Removing PWL point (0.00364883,-0.0361875)
V1: Removing PWL point (0.00364883,-0.0361875)
V1: Removing PWL point (0.00365383,-0.018037)
V1: Removing PWL point (0.0036564,1.70908)
V1: Removing PWL point (0.00365884,-0.029044)
V1: Removing PWL point (0.0036614,1.66704)
V1: Removing PWL point (0.0036614,1.6693)
V1: Removing PWL point (0.00366384,-0.0647642)
V1: Removing PWL point (0.00366384,-0.0721749)
V1: Removing PWL point (0.0036664,1.65435)
V1: Removing PWL point (0.0036664,1.65704)
V1: Removing PWL point (0.00366883,-0.0520099)
V1: Removing PWL point (0.00366883,-0.0520099)
V1: Removing PWL point (0.00366883,-0.0520099)
V1: Removing PWL point (0.0036714,1.68429)
V1: Removing PWL point (0.0036764,1.65084)
V1: Removing PWL point (0.00367884,-0.0813067)
V1: Removing PWL point (0.00367884,-0.0888074)
V1: Removing PWL point (0.0036814,1.64037)
V1: Removing PWL point (0.00368384,-0.0955881)
V1: Removing PWL point (0.00368384,-0.0955881)
V1: Removing PWL point (0.00368384,-0.103887)
V1: Removing PWL point (0.0036864,1.60337)
V1: Removing PWL point (0.00368884,-0.134822)
V1: Removing PWL point (0.00369384,-0.111464)
V1: Removing PWL point (0.0036964,1.62086)
V1: Removing PWL point (0.0037014,1.59361)
V1: Removing PWL point (0.00370884,-0.190944)
V1: Removing PWL point (0.00371139,1.52046)
V1: Removing PWL point (0.00371639,1.55201)
V1: Removing PWL point (0.00371884,-0.178445)
V1: Removing PWL point (0.00372139,1.52232)
V1: Removing PWL point (0.00372384,-0.225501)
V1: Removing PWL point (0.00372384,-0.225501)
V1: Removing PWL point (0.00372637,1.38386)
V1: Removing PWL point (0.00372639,1.4773)
V1: Removing PWL point (0.00372639,1.47932)
V1: Removing PWL point (0.00373139,1.50395)
V1: Removing PWL point (0.00373384,-0.211812)
V1: Removing PWL point (0.00373639,1.50942)
V1: Removing PWL point (0.00374139,1.48259)
V1: Removing PWL point (0.00374139,1.48462)
V1: Removing PWL point (0.00374384,-0.258327)
V1: Removing PWL point (0.00374639,1.45897)
V1: Removing PWL point (0.00374639,1.46077)
V1: Removing PWL point (0.00374885,-0.278592)
V1: Removing PWL point (0.00375136,1.33748)
V1: Removing PWL point (0.00375139,1.43185)
V1: Removing PWL point (0.00375139,1.43304)
V1: Removing PWL point (0.00376139,1.41616)
V1: Removing PWL point (0.00376139,1.41795)
V1: Removing PWL point (0.00376385,-0.327187)
V1: Removing PWL point (0.00376385,-0.334347)
V1: Removing PWL point (0.00376885,-0.356061)
V1: Removing PWL point (0.00377139,1.35724)
V1: Removing PWL point (0.00377139,1.3591)
V1: Removing PWL point (0.00377385,-0.3699)
V1: Removing PWL point (0.00377385,-0.3699)
V1: Removing PWL point (0.00377385,-0.375518)
V1: Removing PWL point (0.00377639,1.35042)
V1: Removing PWL point (0.00377885,-0.384503)
V1: Removing PWL point (0.00378139,1.321)
V1: Removing PWL point (0.00378139,1.32258)
V1: Removing PWL point (0.00378385,-0.399767)
V1: Removing PWL point (0.00378385,-0.399767)
V1: Removing PWL point (0.00378885,-0.395597)
V1: Removing PWL point (0.00378885,-0.395597)
V1: Removing PWL point (0.00379139,1.30627)
V1: Removing PWL point (0.00379385,-0.43818)
V1: Removing PWL point (0.00379385,-0.444934)
V1: Removing PWL point (0.00379638,1.27151)
V1: Removing PWL point (0.00379885,-0.45071)
V1: Removing PWL point (0.00379885,-0.45071)
V1: Removing PWL point (0.00379885,-0.456123)
V1: Removing PWL point (0.00380139,1.2839)
V1: Removing PWL point (0.00380139,1.28534)
V1: Removing PWL point (0.00380385,-0.441318)
V1: Removing PWL point (0.00380385,-0.447379)
V1: Removing PWL point (0.00380885,-0.459049)
V1: Removing PWL point (0.00380885,-0.464583)
V1: Removing PWL point (0.00381385,-0.460441)
V1: Removing PWL point (0.00381885,-0.458801)
V1: Removing PWL point (0.00381885,-0.458801)
V1: Removing PWL point (0.00381885,-0.458801)
V1: Removing PWL point (0.00382138,1.27178)
V1: Removing PWL point (0.00382138,1.27312)
V1: Removing PWL point (0.00382385,-0.460141)
V1: Removing PWL point (0.00382385,-0.460141)
V1: Removing PWL point (0.00382385,-0.465734)
V1: Removing PWL point (0.00382385,-0.465734)
V1: Removing PWL point (0.00382638,1.25016)
V1: Removing PWL point (0.00382885,-0.475347)
V1: Removing PWL point (0.00382885,-0.475347)
V1: Removing PWL point (0.00382885,-0.475347)
V1: Removing PWL point (0.00383138,1.24958)
V1: Removing PWL point (0.00383385,-0.469768)
V1: Removing PWL point (0.00383385,-0.469768)
V1: Removing PWL point (0.00383638,1.25849)
V1: Removing PWL point (0.00383886,-0.48527)
V1: Removing PWL point (0.00384138,1.20949)
V1: Removing PWL point (0.00384138,1.20949)
V1: Removing PWL point (0.00384885,-0.546836)
V1: Removing PWL point (0.00384886,-0.552061)
V1: Removing PWL point (0.00385386,-0.564872)
V1: Removing PWL point (0.00385386,-0.564872)
V1: Removing PWL point (0.00385386,-0.57046)
V1: Removing PWL point (0.00385635,1.04919)
V1: Removing PWL point (0.00385638,1.14379)
V1: Removing PWL point (0.00385886,-0.596583)
V1: Removing PWL point (0.00386138,1.11346)
V1: Removing PWL point (0.00386138,1.11458)
V1: Removing PWL point (0.00386385,-0.595995)
V1: Removing PWL point (0.00386635,1.0581)
V1: Removing PWL point (0.00386638,1.15299)
V1: Removing PWL point (0.00386886,-0.575341)
V1: Removing PWL point (0.00386886,-0.575341)
V1: Removing PWL point (0.00386886,-0.58082)
V1: Removing PWL point (0.00387138,1.12785)
V1: Removing PWL point (0.00387386,-0.615397)
V1: Removing PWL point (0.00387386,-0.615397)
V1: Removing PWL point (0.00387386,-0.615397)
V1: Removing PWL point (0.00387386,-0.620507)
V1: Removing PWL point (0.00387638,1.09851)
V1: Removing PWL point (0.00388138,1.11841)
V1: Removing PWL point (0.00388138,1.11926)
V1: Removing PWL point (0.00388386,-0.615951)
V1: Removing PWL point (0.00388638,1.08215)
V1: Removing PWL point (0.00388886,-0.675999)
V1: Removing PWL point (0.00388886,-0.675999)
V1: Removing PWL point (0.00389138,1.02087)
V1: Removing PWL point (0.00389386,-0.714103)
V1: Removing PWL point (0.00389886,-0.70949)
V1: Removing PWL point (0.00389886,-0.714763)
V1: Removing PWL point (0.00390137,1.01511)
V1: Removing PWL point (0.00390386,-0.707107)
V1: Removing PWL point (0.00390637,1.02188)
V1: Removing PWL point (0.00390886,-0.705235)
V1: Removing PWL point (0.00390886,-0.711779)
V1: Removing PWL point (0.00391137,1.01098)
V1: Removing PWL point (0.00391637,0.986546)
V1: Removing PWL point (0.00391886,-0.735778)
V1: Removing PWL point (0.00392137,0.99983)
V1: Removing PWL point (0.00392137,1.00047)
V1: Removing PWL point (0.00392386,-0.731331)
V1: Removing PWL point (0.00392637,0.975868)
V1: Removing PWL point (0.00392637,0.976484)
V1: Removing PWL point (0.00392886,-0.754834)
V1: Removing PWL point (0.00393137,0.986732)
V1: Removing PWL point (0.00393137,0.987417)
V1: Removing PWL point (0.00393386,-0.740715)
V1: Removing PWL point (0.00393386,-0.740715)
V1: Removing PWL point (0.00393637,0.971797)
V1: Removing PWL point (0.00393637,0.972628)
V1: Removing PWL point (0.00394137,0.959115)
V1: Removing PWL point (0.00394886,-0.815484)
V1: Removing PWL point (0.00395137,0.907751)
V1: Removing PWL point (0.00395637,0.886162)
V1: Removing PWL point (0.00396387,-0.838764)
V1: Removing PWL point (0.00396387,-0.838765)
V1: Removing PWL point (0.00396637,0.88017)
V1: Removing PWL point (0.00396637,0.88017)
V1: Removing PWL point (0.00396886,-0.846566)
V1: Removing PWL point (0.00397387,-0.867969)
V1: Removing PWL point (0.00398137,0.839771)
V1: Removing PWL point (0.00398387,-0.898179)
V1: Removing PWL point (0.00398387,-0.902196)
V1: Removing PWL point (0.00398637,0.801489)
V1: Removing PWL point (0.00398887,-0.939244)
V1: Removing PWL point (0.00399387,-0.950744)
V1: Removing PWL point (0.00399636,0.770567)
V1: Removing PWL point (0.00399887,-0.951214)
V1: Removing PWL point (0.00399887,-0.951214)
V1: Removing PWL point (0.00400136,0.781987)
V1: Removing PWL point (0.00400387,-0.939292)
V1: Removing PWL point (0.00400636,0.786456)
V1: Removing PWL point (0.00400887,-0.948874)
V1: Removing PWL point (0.00401136,0.76466)
V1: Removing PWL point (0.00401387,-0.970064)
V1: Removing PWL point (0.00401387,-0.974208)
V1: Removing PWL point (0.00401636,0.750603)
V1: Removing PWL point (0.00401888,-0.99659)
V1: Removing PWL point (0.00402387,-1.03745)
V1: Removing PWL point (0.00402387,-1.04132)
V1: Removing PWL point (0.00402636,0.682561)
V1: Removing PWL point (0.00402636,0.682561)
V1: Removing PWL point (0.00402887,-1.03925)
V1: Removing PWL point (0.00402887,-1.03925)
V1: Removing PWL point (0.00403136,0.693798)
V1: Removing PWL point (0.00403136,0.693798)
V1: Removing PWL point (0.00403388,-1.0452)
V1: Removing PWL point (0.00403888,-1.08142)
V1: Removing PWL point (0.00404387,-1.08172)
V1: Removing PWL point (0.00404636,0.652677)
V1: Removing PWL point (0.00405133,0.533935)
V1: Removing PWL point (0.00405136,0.630614)
V1: Removing PWL point (0.00405636,0.599732)
V1: Removing PWL point (0.00405636,0.600889)
V1: Removing PWL point (0.00405887,-1.11461)
V1: Removing PWL point (0.00406136,0.630079)
V1: Removing PWL point (0.00406136,0.630079)
V1: Removing PWL point (0.00406388,-1.09037)
V1: Removing PWL point (0.00406636,0.630917)
V1: Removing PWL point (0.00406636,0.630917)
V1: Removing PWL point (0.00406636,0.630918)
V1: Removing PWL point (0.00406636,0.632086)
V1: Removing PWL point (0.00406888,-1.11808)
V1: Removing PWL point (0.00406888,-1.11808)
V1: Removing PWL point (0.00406888,-1.12144)
V1: Removing PWL point (0.00407136,0.577359)
V1: Removing PWL point (0.00407136,0.57736)
V1: Removing PWL point (0.00407136,0.577928)
V1: Removing PWL point (0.00407388,-1.17504)
V1: Removing PWL point (0.00407388,-1.17504)
[...]
V1: Removing PWL point (0.00871387,-1.62858)
V1: Removing PWL point (0.0087139,-1.71997)
V1: Removing PWL point (0.00871633,0.0199835)
V1: Removing PWL point (0.00871633,0.0199835)
V1: Removing PWL point (0.00871633,0.0199835)
V1: Removing PWL point (0.00871633,0.0220429)
V1: Removing PWL point (0.0087189,-1.70214)
V1: Removing PWL point (0.0087239,-1.70831)
V1: Removing PWL point (0.00872634,0.0187889)
V1: Removing PWL point (0.0087289,-1.69356)
V1: Removing PWL point (0.00873134,0.0447852)
V1: Removing PWL point (0.00873134,0.0447853)
V1: Removing PWL point (0.00873134,0.0447853)
V1: Removing PWL point (0.00873134,0.0447853)
V1: Removing PWL point (0.0087339,-1.67679)
V1: Removing PWL point (0.0087389,-1.67389)
V1: Removing PWL point (0.00874134,0.0549174)
V1: Removing PWL point (0.00874134,0.0549174)
V1: Removing PWL point (0.00874134,0.0567512)
V1: Removing PWL point (0.0087489,-1.67664)
V1: Removing PWL point (0.0087489,-1.67946)
V1: Removing PWL point (0.00875134,0.0657428)
V1: Removing PWL point (0.00875389,-1.63562)
V1: Removing PWL point (0.00875634,0.115612)
V1: Removing PWL point (0.00876134,0.136575)
V1: Removing PWL point (0.00876889,-1.57839)
V1: Removing PWL point (0.00877134,0.143253)
V1: Removing PWL point (0.00877134,0.144717)
V1: Removing PWL point (0.00877389,-1.57839)
V1: Removing PWL point (0.00877634,0.160822)
V1: Removing PWL point (0.00877634,0.16233)
V1: Removing PWL point (0.0087789,-1.56759)
V1: Removing PWL point (0.00878134,0.149457)
V1: Removing PWL point (0.00878389,-1.57671)
V1: Removing PWL point (0.0087839,-1.5806)
V1: Removing PWL point (0.00878634,0.150473)
V1: Removing PWL point (0.00878889,-1.56566)
V1: Removing PWL point (0.00878889,-1.56806)
V1: Removing PWL point (0.00879134,0.17635)
V1: Removing PWL point (0.00879134,0.17635)
V1: Removing PWL point (0.00879389,-1.54239)
V1: Removing PWL point (0.0087939,-1.54462)
V1: Removing PWL point (0.00879634,0.184441)
V1: Removing PWL point (0.0087989,-1.54593)
V1: Removing PWL point (0.0087989,-1.54937)
V1: Removing PWL point (0.00880134,0.172714)
V1: Removing PWL point (0.00880389,-1.54884)
V1: Removing PWL point (0.00880634,0.188442)
V1: Removing PWL point (0.00880889,-1.52366)
V1: Removing PWL point (0.00881134,0.21061)
V1: Removing PWL point (0.00881134,0.212298)
V1: Removing PWL point (0.00881389,-1.48875)
V1: Removing PWL point (0.00881889,-1.43805)
V1: Removing PWL point (0.00881889,-1.44138)
V1: Removing PWL point (0.00882135,0.300229)
V1: Removing PWL point (0.00882389,-1.43365)
V1: Removing PWL point (0.00882635,0.280111)
V1: Removing PWL point (0.00882635,0.281467)
V1: Removing PWL point (0.00882889,-1.44484)
V1: Removing PWL point (0.00883135,0.294712)
V1: Removing PWL point (0.00883389,-1.42915)
V1: Removing PWL point (0.00883389,-1.43155)
V1: Removing PWL point (0.00883635,0.293364)
V1: Removing PWL point (0.00883889,-1.44117)
V1: Removing PWL point (0.00884135,0.276362)
V1: Removing PWL point (0.00884135,0.276362)
V1: Removing PWL point (0.00884389,-1.44636)
V1: Removing PWL point (0.00884635,0.288496)
V1: Removing PWL point (0.00884635,0.288496)
V1: Removing PWL point (0.00884889,-1.42876)
V1: Removing PWL point (0.00884889,-1.43285)
V1: Removing PWL point (0.00885135,0.300815)
V1: Removing PWL point (0.00885135,0.301952)
V1: Removing PWL point (0.00885389,-1.41559)
V1: Removing PWL point (0.00885389,-1.41918)
V1: Removing PWL point (0.00885635,0.319514)
V1: Removing PWL point (0.00885888,-1.37878)
V1: Removing PWL point (0.00885888,-1.38196)
V1: Removing PWL point (0.00886135,0.378019)
V1: Removing PWL point (0.00886135,0.378925)
V1: Removing PWL point (0.00886388,-1.32132)
V1: Removing PWL point (0.00886388,-1.32445)
V1: Removing PWL point (0.00886635,0.418901)
V1: Removing PWL point (0.00886889,-1.31615)
V1: Removing PWL point (0.00886889,-1.31615)
V1: Removing PWL point (0.00887635,0.381199)
V1: Removing PWL point (0.00887635,0.382012)
V1: Removing PWL point (0.00887888,-1.32293)
V1: Removing PWL point (0.00888135,0.433531)
V1: Removing PWL point (0.00888388,-1.27122)
V1: Removing PWL point (0.00888635,0.466195)
V1: Removing PWL point (0.00888889,-1.26726)
V1: Removing PWL point (0.00889135,0.451459)
V1: Removing PWL point (0.00889135,0.452215)
V1: Removing PWL point (0.00889388,-1.28076)
V1: Removing PWL point (0.00889388,-1.28076)
V1: Removing PWL point (0.00889635,0.444472)
V1: Removing PWL point (0.00889888,-1.26656)
V1: Removing PWL point (0.00890388,-1.22778)
V1: Removing PWL point (0.00890636,0.503433)
V1: Removing PWL point (0.00890636,0.503433)
V1: Removing PWL point (0.00890636,0.503887)
V1: Removing PWL point (0.00890888,-1.21734)
V1: Removing PWL point (0.00891136,0.512351)
V1: Removing PWL point (0.00891388,-1.22353)
V1: Removing PWL point (0.00891636,0.487604)
V1: Removing PWL point (0.00891636,0.488752)
V1: Removing PWL point (0.00891888,-1.2405)
V1: Removing PWL point (0.00892136,0.491576)
V1: Removing PWL point (0.00892136,0.491576)
V1: Removing PWL point (0.00892136,0.491576)
V1: Removing PWL point (0.00892388,-1.21333)
V1: Removing PWL point (0.00892636,0.538685)
V1: Removing PWL point (0.00892887,-1.15549)
V1: Removing PWL point (0.00892888,-1.15954)
V1: Removing PWL point (0.00893136,0.595629)
V1: Removing PWL point (0.00893136,0.595629)
V1: Removing PWL point (0.00893136,0.596221)
V1: Removing PWL point (0.00893388,-1.13755)
V1: Removing PWL point (0.00893636,0.576554)
V1: Removing PWL point (0.00893888,-1.15611)
V1: Removing PWL point (0.00894387,-1.13631)
V1: Removing PWL point (0.00894633,0.514837)
V1: Removing PWL point (0.00894636,0.611475)
V1: Removing PWL point (0.00895388,-1.12782)
V1: Removing PWL point (0.00895388,-1.13269)
V1: Removing PWL point (0.00895636,0.602881)
V1: Removing PWL point (0.00895636,0.604043)
V1: Removing PWL point (0.00895887,-1.1018)
V1: Removing PWL point (0.00896388,-1.0826)
V1: Removing PWL point (0.00896633,0.538755)
V1: Removing PWL point (0.00896636,0.635058)
V1: Removing PWL point (0.00896888,-1.09607)
V1: Removing PWL point (0.00897387,-1.07015)
V1: Removing PWL point (0.00897636,0.684289)
V1: Removing PWL point (0.00897636,0.68519)
V1: Removing PWL point (0.00897636,0.68519)
V1: Removing PWL point (0.00897887,-1.02131)
V1: Removing PWL point (0.00897887,-1.026)
V1: Removing PWL point (0.00898387,-1.00082)
V1: Removing PWL point (0.00898636,0.738441)
V1: Removing PWL point (0.00898887,-0.989304)
V1: Removing PWL point (0.00898887,-0.993358)
V1: Removing PWL point (0.00899634,0.616548)
V1: Removing PWL point (0.00899636,0.712812)
V1: Removing PWL point (0.00899636,0.713642)
V1: Removing PWL point (0.00899887,-0.996681)
V1: Removing PWL point (0.00899887,-1.00075)
V1: Removing PWL point (0.00900387,-0.966321)
V1: Removing PWL point (0.00900887,-0.947703)
V1: Removing PWL point (0.00900887,-0.947703)
V1: Removing PWL point (0.00900887,-0.947703)
V1: Removing PWL point (0.00901637,0.816069)
V1: Removing PWL point (0.00901637,0.816069)
V1: Removing PWL point (0.00901637,0.816069)
V1: Removing PWL point (0.00901637,0.816524)
V1: Removing PWL point (0.00901887,-0.909629)
V1: Removing PWL point (0.00902137,0.818178)
V1: Removing PWL point (0.00902387,-0.905646)
V1: Removing PWL point (0.00902387,-0.905647)
V1: Removing PWL point (0.00902637,0.830611)
V1: Removing PWL point (0.00903387,-0.902523)
V1: Removing PWL point (0.00905137,0.884462)
V1: Removing PWL point (0.00905387,-0.842885)
V1: Removing PWL point (0.00905637,0.881489)
V1: Removing PWL point (0.00905637,0.881489)
V1: Removing PWL point (0.00906137,0.910493)
V1: Removing PWL point (0.00906137,0.910493)
V1: Removing PWL point (0.00906137,0.910493)
V1: Removing PWL point (0.00906637,0.957207)
V1: Removing PWL point (0.00906887,-0.774885)
V1: Removing PWL point (0.00906887,-0.774885)
V1: Removing PWL point (0.00907137,0.931783)
V1: Removing PWL point (0.00907386,-0.799767)
V1: Removing PWL point (0.00907637,0.924877)
V1: Removing PWL point (0.00907637,0.924877)
V1: Removing PWL point (0.00908386,-0.742887)
V1: Removing PWL point (0.00909137,1.02899)
V1: Removing PWL point (0.00909386,-0.698612)
V1: Removing PWL point (0.00909637,1.02458)
V1: Removing PWL point (0.00910137,1.0296)
V1: Removing PWL point (0.00910386,-0.686244)
V1: Removing PWL point (0.00910386,-0.686245)
V1: Removing PWL point (0.00910638,1.05103)
V1: Removing PWL point (0.00910886,-0.662994)
V1: Removing PWL point (0.00911386,-0.662266)
V1: Removing PWL point (0.00911638,1.06258)
V1: Removing PWL point (0.00912386,-0.640788)
V1: Removing PWL point (0.00913638,1.12084)
V1: Removing PWL point (0.00913885,-0.598459)
V1: Removing PWL point (0.00914138,1.14038)
V1: Removing PWL point (0.00914386,-0.576086)
V1: Removing PWL point (0.00914386,-0.576087)
V1: Removing PWL point (0.00914386,-0.576087)
V1: Removing PWL point (0.00914386,-0.581497)
V1: Removing PWL point (0.00915138,1.17652)
V1: Removing PWL point (0.00915138,1.17784)
V1: Removing PWL point (0.00915386,-0.546273)
V1: Removing PWL point (0.00916138,1.17018)
V1: Removing PWL point (0.00917638,1.21663)
V1: Removing PWL point (0.00917638,1.21663)
V1: Removing PWL point (0.00918385,-0.505981)
V1: Removing PWL point (0.00919638,1.27494)
V1: Removing PWL point (0.00919638,1.27694)
V1: Removing PWL point (0.00919885,-0.443219)
V1: Removing PWL point (0.00919885,-0.448842)
V1: Removing PWL point (0.00920639,1.26611)
V1: Removing PWL point (0.00920885,-0.455815)
V1: Removing PWL point (0.00920885,-0.455815)
V1: Removing PWL point (0.00921139,1.28383)
V1: Removing PWL point (0.00921885,-0.373084)
V1: Removing PWL point (0.00922139,1.36742)
V1: Removing PWL point (0.00922639,1.34135)
V1: Removing PWL point (0.00922885,-0.378803)
V1: Removing PWL point (0.00922885,-0.385257)
V1: Removing PWL point (0.00923139,1.36441)
V1: Removing PWL point (0.00923385,-0.343287)
V1: Removing PWL point (0.00924385,-0.346307)
V1: Removing PWL point (0.00924639,1.3963)
V1: Removing PWL point (0.00925384,-0.250906)
V1: Removing PWL point (0.00925384,-0.257504)
V1: Removing PWL point (0.00925639,1.48568)
V1: Removing PWL point (0.00926639,1.45147)
V1: Removing PWL point (0.00927137,1.41165)
V1: Removing PWL point (0.00927139,1.50749)
V1: Removing PWL point (0.00927384,-0.207896)
V1: Removing PWL point (0.00927639,1.51146)
V1: Removing PWL point (0.00928639,1.5334)
V1: Removing PWL point (0.00928884,-0.165598)
V1: Removing PWL point (0.00929384,-0.138593)
V1: Removing PWL point (0.0093014,1.55322)
V1: Removing PWL point (0.00930884,-0.133702)
V1: Removing PWL point (0.00931137,1.52758)
V1: Removing PWL point (0.0093114,1.61931)
V1: Removing PWL point (0.00931384,-0.0947219)
V1: Removing PWL point (0.0093164,1.63475)
V1: Removing PWL point (0.0093214,1.63842)
V1: Removing PWL point (0.0093264,1.60458)
V1: Removing PWL point (0.00933383,-0.0853005)
V1: Removing PWL point (0.00933383,-0.0853005)
V1: Removing PWL point (0.0093364,1.67863)
V1: Removing PWL point (0.0093364,1.67863)
V1: Removing PWL point (0.00934383,-0.0226326)
V1: Removing PWL point (0.0093514,1.68281)
V1: Removing PWL point (0.00935637,1.59122)
V1: Removing PWL point (0.00935883,-0.0215646)
V1: Removing PWL point (0.00936138,1.64108)
V1: Removing PWL point (0.0093664,1.74474)
V1: Removing PWL point (0.0093714,1.72715)
V1: Removing PWL point (0.0093714,1.72938)
V1: Removing PWL point (0.00937383,0.0178168)
V1: Removing PWL point (0.0093764,1.77544)
V1: Removing PWL point (0.00938138,1.68394)
V1: Removing PWL point (0.0093814,1.77712)
V1: Removing PWL point (0.0093814,1.7791)
V1: Removing PWL point (0.00938638,1.71556)
V1: Removing PWL point (0.0093864,1.80875)
V1: Removing PWL point (0.0093914,1.82435)
V1: Removing PWL point (0.00939641,1.8071)
V1: Removing PWL point (0.00940141,1.82986)
V1: Removing PWL point (0.00940383,0.109219)
V1: Removing PWL point (0.00940383,0.109219)
V1: Removing PWL point (0.00940383,0.101162)
V1: Removing PWL point (0.00940641,1.82669)
V1: Removing PWL point (0.00940641,1.82759)
V1: Removing PWL point (0.00940883,0.120543)
V1: Removing PWL point (0.00940883,0.120543)
V1: Removing PWL point (0.00941641,1.87423)
V1: Removing PWL point (0.00941641,1.87647)
V1: Removing PWL point (0.00941883,0.150432)
V1: Removing PWL point (0.00942141,1.86551)
V1: Removing PWL point (0.00942383,0.151634)
V1: Removing PWL point (0.00942641,1.88938)
V1: Removing PWL point (0.00942883,0.183245)
V1: Removing PWL point (0.00942883,0.183245)
V1: Removing PWL point (0.00943141,1.91376)
V1: Removing PWL point (0.00944141,1.9459)
V1: Removing PWL point (0.00944641,1.95847)
V1: Removing PWL point (0.00944641,1.96088)
V1: Removing PWL point (0.00944882,0.25158)
V1: Removing PWL point (0.00944882,0.251579)
V1: Removing PWL point (0.00944882,0.242673)
V1: Removing PWL point (0.00945141,1.98852)
V1: Removing PWL point (0.00946882,0.25591)
V1: Removing PWL point (0.00947139,1.90877)
V1: Removing PWL point (0.00947141,2.0001)
V1: Removing PWL point (0.00947141,2.00101)
V1: Removing PWL point (0.00949382,0.345418)
V1: Removing PWL point (0.00949641,2.08867)
V1: Removing PWL point (0.00949882,0.378638)
V1: Removing PWL point (0.00950142,2.09104)
V1: Removing PWL point (0.00950382,0.35885)
V1: Removing PWL point (0.00950382,0.35885)
V1: Removing PWL point (0.00950641,2.05962)
V1: Removing PWL point (0.00950642,2.06324)
V1: Removing PWL point (0.00950882,0.348073)
V1: Removing PWL point (0.00951139,1.99068)
V1: Removing PWL point (0.00951142,2.08233)
V1: Removing PWL point (0.00951142,2.08233)
V1: Removing PWL point (0.00951639,2.03608)
V1: Removing PWL point (0.00951642,2.13117)
V1: Removing PWL point (0.00951882,0.420934)
V1: Removing PWL point (0.00952142,2.13482)
V1: Removing PWL point (0.00952882,0.4171)
V1: Removing PWL point (0.00953139,2.05924)
V1: Removing PWL point (0.00953882,0.440132)
V1: Removing PWL point (0.00954881,0.517987)
V1: Removing PWL point (0.00955139,2.15746)
V1: Removing PWL point (0.00955142,2.24424)
V1: Removing PWL point (0.00955142,2.24855)
V1: Removing PWL point (0.00956142,2.22664)
V1: Removing PWL point (0.0095664,2.14162)
V1: Removing PWL point (0.0095764,2.15864)
V1: Removing PWL point (0.00957881,0.548098)
V1: Removing PWL point (0.00957881,0.548098)
V1: Removing PWL point (0.00957881,0.548098)
V1: Removing PWL point (0.00958142,2.28337)
V1: Removing PWL point (0.00958642,2.29858)
V1: Removing PWL point (0.00959382,0.586028)
V1: Removing PWL point (0.0095964,2.20434)
V1: Removing PWL point (0.00960381,0.613259)
V1: Removing PWL point (0.00960381,0.613259)
V1: Removing PWL point (0.00960643,2.32089)
V1: Removing PWL point (0.00960643,2.32511)
V1: Removing PWL point (0.00961143,2.36467)
V1: Removing PWL point (0.0096164,2.2825)
V1: Removing PWL point (0.0096164,2.28439)
V1: Removing PWL point (0.0096164,2.28439)
V1: Removing PWL point (0.00961643,2.37669)
V1: Removing PWL point (0.00961643,2.37669)
V1: Removing PWL point (0.0096214,2.32693)
V1: Removing PWL point (0.00962143,2.41799)
V1: Removing PWL point (0.00963643,2.4526)
V1: Removing PWL point (0.00963881,0.73172)
V1: Removing PWL point (0.00963881,0.73172)
V1: Removing PWL point (0.00964143,2.43212)
V1: Removing PWL point (0.00964643,2.44479)
V1: Removing PWL point (0.00964881,0.721106)
V1: Removing PWL point (0.00965143,2.4386)
V1: Removing PWL point (0.00965143,2.44317)
V1: Removing PWL point (0.00965381,0.731304)
V1: Removing PWL point (0.00965381,0.731304)
V1: Removing PWL point (0.00965381,0.722021)
V1: Removing PWL point (0.00966381,0.750081)
V1: Removing PWL point (0.00966643,2.47399)
V1: Removing PWL point (0.00966643,2.47399)
V1: Removing PWL point (0.00967143,2.47517)
V1: Removing PWL point (0.0096788,0.810645)
V1: Removing PWL point (0.00968143,2.55623)
V1: Removing PWL point (0.00968643,2.57665)
V1: Removing PWL point (0.00968643,2.57665)
V1: Removing PWL point (0.00969143,2.57938)
V1: Removing PWL point (0.00969143,2.58351)
V1: Removing PWL point (0.0096938,0.863766)
V1: Removing PWL point (0.0096988,0.873437)
V1: Removing PWL point (0.00970144,2.56942)
V1: Removing PWL point (0.00970644,2.57711)
V1: Removing PWL point (0.0097188,0.915812)
V1: Removing PWL point (0.00972144,2.62883)
V1: Removing PWL point (0.00972144,2.63392)
V1: Removing PWL point (0.00972644,2.63295)
V1: Removing PWL point (0.0097338,0.943635)
V1: Removing PWL point (0.00974144,2.69502)
V1: Removing PWL point (0.0097438,0.996972)
V1: Removing PWL point (0.0097438,0.996972)
V1: Removing PWL point (0.00974879,0.999683)
V1: Removing PWL point (0.00975379,1.01226)
V1: Removing PWL point (0.00975879,1.03164)
V1: Removing PWL point (0.0097688,1.02292)
V1: Removing PWL point (0.00977144,2.74818)
V1: Removing PWL point (0.00977144,2.75318)
V1: Removing PWL point (0.00977642,2.68371)
V1: Removing PWL point (0.0097788,1.05841)
V1: Removing PWL point (0.0097788,1.05841)
V1: Removing PWL point (0.00978144,2.75114)
V1: Removing PWL point (0.00978642,2.66694)
V1: Removing PWL point (0.00978644,2.76071)
V1: Removing PWL point (0.00979142,2.68996)
V1: Removing PWL point (0.00979379,1.07644)
V1: Removing PWL point (0.00980144,2.8079)
V1: Removing PWL point (0.00980644,2.79579)
V1: Removing PWL point (0.00981644,2.83197)
V1: Removing PWL point (0.00982379,1.13762)
V1: Removing PWL point (0.00982645,2.84691)
V1: Removing PWL point (0.00983142,2.80819)
V1: Removing PWL point (0.00983145,2.90189)
V1: Removing PWL point (0.00983645,2.91634)
V1: Removing PWL point (0.00983645,2.9222)
V1: Removing PWL point (0.00985642,2.89869)
V1: Removing PWL point (0.00985878,1.29137)
V1: Removing PWL point (0.00986379,1.2786)
V1: Removing PWL point (0.00986879,1.27034)
V1: Removing PWL point (0.00987145,2.99944)
V1: Removing PWL point (0.00987643,2.91327)
V1: Removing PWL point (0.00988145,3.02488)
V1: Removing PWL point (0.00988643,2.9535)
V1: Removing PWL point (0.00988645,3.04698)
V1: Removing PWL point (0.00988878,1.3339)
V1: Removing PWL point (0.00989645,3.06777)
V1: Removing PWL point (0.00989878,1.35818)
V1: Removing PWL point (0.00990145,3.04293)
V1: Removing PWL point (0.00990145,3.04293)
V1: Removing PWL point (0.00990379,1.31268)
V1: Removing PWL point (0.00990878,1.33108)
V1: Removing PWL point (0.00991143,2.98061)
V1: Removing PWL point (0.00991145,3.07402)
V1: Removing PWL point (0.00991379,1.36001)
V1: Removing PWL point (0.00991645,3.06602)
V1: Removing PWL point (0.00992145,3.07208)
V1: Removing PWL point (0.00992146,3.07814)
V1: Removing PWL point (0.00992378,1.38667)
V1: Removing PWL point (0.00992878,1.41568)
V1: Removing PWL point (0.00993145,3.10805)
V1: Removing PWL point (0.00993146,3.11455)
V1: Removing PWL point (0.00993646,3.10055)
V1: Removing PWL point (0.00993878,1.4075)
V1: Removing PWL point (0.00993878,1.39447)
V1: Removing PWL point (0.00994146,3.12382)
V1: Removing PWL point (0.00994643,3.06119)
V1: Removing PWL point (0.00994646,3.14888)
V1: Removing PWL point (0.00995146,3.16067)
V1: Removing PWL point (0.00995378,1.45915)
V1: Removing PWL point (0.00995646,3.16726)
V1: Removing PWL point (0.00995646,3.16726)
V1: Removing PWL point (0.00996646,3.2274)
V1: Removing PWL point (0.00997146,3.20484)
V1: Removing PWL point (0.00997378,1.5052)
V1: Removing PWL point (0.00997646,3.2035)
V1: Removing PWL point (0.00998143,3.14751)
V1: Removing PWL point (0.00998146,3.24088)
V1: Removing PWL point (0.00998377,1.55368)
V1: Removing PWL point (0.00998646,3.26138)
V1: Removing PWL point (0.00998875,1.65724)
V1: Removing PWL point (0.00999377,1.56132)
V1: Removing PWL point (0.00999377,1.54858)
V1: Removing PWL point (0.00999646,3.27885)
V1: Removing PWL point (0.00999877,1.5946)
V1: Removing PWL point (0.00999877,1.58194)
WARNING: Less than two connections to node N001.  This node is used by V1.
Direct Newton iteration for .op point succeeded.

Date: Sat Mar 07 01:37:15 2020
Total elapsed time: 642.805 seconds.

tnom = 27
temp = 27
method = modified trap
totiter = 1328253
traniter = 1328250
tranpoints = 664126
accept = 664126
rejected = 0
matrix size = 2
fillins = 0
solver = Alternate
Matrix Compiler1: 20 bytes object code size  0.0/0.0/[0.0]
Matrix Compiler2: off  [0.0]/0.0/0.0

