Circuit: * C:\Users\Ema\Desktop\DCE\DISTORSION\Distorsion_10k.asc

Questionable use of curly braces in "b§e_abmgate yint 0 v={if(v(a)>{{vthresh}},{{vss}},{{vdd}})}"
    Error: undefined symbol in: "if([v](a)>((vthresh)),((vss)),((vdd)))"
Questionable use of curly braces in "b§e_abmgate yint 0 v={if(v(a)>{{vthresh}}&v(b)>{{vthresh}},{{vdd}},{{vss}})}"
    Error: undefined symbol in: "if([v](a)>((vthresh))&v(b)>((vthresh)),((vdd)),((vss)))"
Questionable use of curly braces in "b§e_abmgate yint 0 v={if(v(a)>{{vthresh}}&v(b)>{{vthresh}},{{vdd}},{{vss}})}"
    Error: undefined symbol in: "if([v](a)>((vthresh))&v(b)>((vthresh)),((vdd)),((vss)))"
Questionable use of curly braces in "b§e_abmgate yint 0 v={if(v(a)>{{vthresh}},{{vss}},{{vdd}})}"
    Error: undefined symbol in: "if([v](a)>((vthresh)),((vss)),((vdd)))"
Questionable use of curly braces in "b§e_abmgate yint 0 v={if(v(a)>{{vthresh}}&v(b)>{{vthresh}},{{vdd}},{{vss}})}"
    Error: undefined symbol in: "if([v](a)>((vthresh))&v(b)>((vthresh)),((vdd)),((vss)))"
Questionable use of curly braces in "b§e_abmgate yint 0 v={if(v(a)>{{vthresh}},{{vss}},{{vdd}})}"
    Error: undefined symbol in: "if([v](a)>((vthresh)),((vss)),((vdd)))"
WARNING: Less than two connections to node NC_03.  This node is used by V:U4:_V11.
WARNING: Less than two connections to node NC_02.  This node is used by V:U4:_V12.
WARNING: Less than two connections to node NC_01.  This node is used by V:U4:_V13.
WARNING: Less than two connections to node NC_04.  This node is used by V:U4:_V14.
WARNING: Less than two connections to node -15V.  This node is used by V6.
Instance "m:u4:_m12:1": Length shorter than recommended for a level 1 MOSFET.
Instance "m:u4:_m14:1": Length shorter than recommended for a level 1 MOSFET.
Instance "m:u4:_m15:1": Length shorter than recommended for a level 1 MOSFET.
Instance "m:u4:_m13:1": Length shorter than recommended for a level 1 MOSFET.
Instance "m:m2:2": Length shorter than recommended for a level 3 MOSFET.
Instance "m:m2:1": Length shorter than recommended for a level 3 MOSFET.
Instance "m:m1:2": Length shorter than recommended for a level 3 MOSFET.
Instance "m:m1:1": Length shorter than recommended for a level 3 MOSFET.
Per .tran options, skipping operating point for transient analysis.
Ignoring empty pin current: Ix(u4:vcci_1)
Changing Tseed to 2.92969e-010
Changing Tseed to 2.92969e-012
Changing Tseed to 2.92969e-009
Changing Tseed to 2.92969e-013
Changing Tseed to 2.92969e-008
Changing Tseed to 2.92969e-014
Changing Tseed to 2.92969e-007
Changing Tseed to 2.92969e-015
Changing Tseed to 2.92969e-006
Changing Tseed to 2.92969e-016
Changing Tseed to 2.92969e-005
Changing Tseed to 2.92969e-017
Heightened Def Con from 0 Changing Tseed to 1e-009
Changing Tseed to 1e-011
Changing Tseed to 1e-008
Changing Tseed to 1e-012
Changing Tseed to 1e-007
Changing Tseed to 1e-013
Changing Tseed to 1e-006
Changing Tseed to 1e-014
Changing Tseed to 1e-005
Changing Tseed to 1e-015
Changing Tseed to 0.0001
Changing Tseed to 1e-016
+Changing Tseed to 1e-009
Changing Tseed to 1e-011
Changing Tseed to 1e-008
Changing Tseed to 1e-012
Changing Tseed to 1e-007
Changing Tseed to 1e-013
Changing Tseed to 1e-006
Changing Tseed to 1e-014
Changing Tseed to 1e-005
Changing Tseed to 1e-015
Changing Tseed to 0.0001
Changing Tseed to 1e-016
+Changing Tseed to 1e-009
Changing Tseed to 1e-011
Changing Tseed to 1e-008
Changing Tseed to 1e-012
Changing Tseed to 1e-007
Changing Tseed to 1e-013
Changing Tseed to 1e-006
Changing Tseed to 1e-014
Changing Tseed to 1e-005
Changing Tseed to 1e-015
Changing Tseed to 0.0001
Changing Tseed to 1e-016
+Changing Tseed to 1e-009
Changing Tseed to 1e-011
Changing Tseed to 1e-008
Changing Tseed to 1e-012
Changing Tseed to 1e-007
Changing Tseed to 1e-013
Changing Tseed to 1e-006
Changing Tseed to 1e-014
Changing Tseed to 1e-005
Changing Tseed to 1e-015
Changing Tseed to 0.0001
Changing Tseed to 1e-016
+Changing Tseed to 1e-009
Changing Tseed to 1e-011
Changing Tseed to 1e-008
Changing Tseed to 1e-012
Changing Tseed to 1e-007
Changing Tseed to 1e-013
Changing Tseed to 1e-006
Changing Tseed to 1e-014
Changing Tseed to 1e-005
Changing Tseed to 1e-015
Changing Tseed to 0.0001
Changing Tseed to 1e-016
+Changing Tseed to 1e-009
Changing Tseed to 1e-011
Changing Tseed to 1e-008
Changing Tseed to 1e-012
Changing Tseed to 1e-007
Changing Tseed to 1e-013
Changing Tseed to 1e-006
Changing Tseed to 1e-014
Changing Tseed to 1e-005
Changing Tseed to 1e-015
Changing Tseed to 0.0001
Changing Tseed to 1e-016
+Changing Tseed to 1e-009
Changing Tseed to 1e-011
Changing Tseed to 1e-008
Changing Tseed to 1e-012
Changing Tseed to 1e-007
Changing Tseed to 1e-013
Changing Tseed to 1e-006
Changing Tseed to 1e-014
Changing Tseed to 1e-005
Changing Tseed to 1e-015
Changing Tseed to 0.0001
Changing Tseed to 1e-016
+Changing Tseed to 1e-009
Changing Tseed to 1e-011
Changing Tseed to 1e-008
Changing Tseed to 1e-012
Changing Tseed to 1e-007
Changing Tseed to 1e-013
Changing Tseed to 1e-006
Changing Tseed to 1e-014
Changing Tseed to 1e-005
Changing Tseed to 1e-015
Changing Tseed to 0.0001
Changing Tseed to 1e-016
+Changing Tseed to 1e-009
Changing Tseed to 1e-011
Changing Tseed to 1e-008
Changing Tseed to 1e-012
Changing Tseed to 1e-007
Changing Tseed to 1e-013
Changing Tseed to 1e-006
Changing Tseed to 1e-014
Changing Tseed to 1e-005
Changing Tseed to 1e-015
Changing Tseed to 0.0001
Changing Tseed to 1e-016
+Changing Tseed to 1e-009
Changing Tseed to 1e-011
Changing Tseed to 1e-008
Changing Tseed to 1e-012
Changing Tseed to 1e-007
Changing Tseed to 1e-013
Changing Tseed to 1e-006
Changing Tseed to 1e-014
Changing Tseed to 1e-005
Changing Tseed to 1e-015
Changing Tseed to 0.0001
Changing Tseed to 1e-016
+Changing Tseed to 1e-009
Changing Tseed to 1e-011
Changing Tseed to 1e-008
Changing Tseed to 1e-012
Changing Tseed to 1e-007
Changing Tseed to 1e-013
Changing Tseed to 1e-006
Changing Tseed to 1e-014
Changing Tseed to 1e-005
Changing Tseed to 1e-015
Changing Tseed to 0.0001
Changing Tseed to 1e-016
+Changing Tseed to 1e-009
Changing Tseed to 1e-011
Changing Tseed to 1e-008
Changing Tseed to 1e-012
Changing Tseed to 1e-007
Changing Tseed to 1e-013
Changing Tseed to 1e-006
Changing Tseed to 1e-014
Changing Tseed to 1e-005
Changing Tseed to 1e-015
Changing Tseed to 0.0001
Changing Tseed to 1e-016
+Changing Tseed to 1e-009
Changing Tseed to 1e-011
Changing Tseed to 1e-008
Changing Tseed to 1e-012
Changing Tseed to 1e-007
Changing Tseed to 1e-013
Changing Tseed to 1e-006
Changing Tseed to 1e-014
Changing Tseed to 1e-005
Changing Tseed to 1e-015
Changing Tseed to 0.0001
Changing Tseed to 1e-016
+Changing Tseed to 1e-009
Changing Tseed to 1e-011
Changing Tseed to 1e-008
Changing Tseed to 1e-012
Changing Tseed to 1e-007
Changing Tseed to 1e-013
Changing Tseed to 1e-006
Changing Tseed to 1e-014
Changing Tseed to 1e-005
Changing Tseed to 1e-015
Changing Tseed to 0.0001
Changing Tseed to 1e-016
+Changing Tseed to 1e-009
Changing Tseed to 1e-011
Changing Tseed to 1e-008
Changing Tseed to 1e-012
Changing Tseed to 1e-007
Changing Tseed to 1e-013
Changing Tseed to 1e-006
Changing Tseed to 1e-014
Changing Tseed to 1e-005
Changing Tseed to 1e-015
Changing Tseed to 0.0001
Changing Tseed to 1e-016
+Changing Tseed to 1e-009
Changing Tseed to 1e-011
Changing Tseed to 1e-008
Changing Tseed to 1e-012
Changing Tseed to 1e-007
Changing Tseed to 1e-013
Changing Tseed to 1e-006
Changing Tseed to 1e-014
Changing Tseed to 1e-005
Changing Tseed to 1e-015
Changing Tseed to 0.0001
Changing Tseed to 1e-016
+Changing Tseed to 1e-009
Changing Tseed to 1e-011
Changing Tseed to 1e-008
Changing Tseed to 1e-012
Changing Tseed to 1e-007
Changing Tseed to 1e-013
Changing Tseed to 1e-006
Changing Tseed to 1e-014
Changing Tseed to 1e-005
Changing Tseed to 1e-015
Changing Tseed to 0.0001
Changing Tseed to 1e-016
+Changing Tseed to 1e-009
Changing Tseed to 1e-011
Changing Tseed to 1e-008
Changing Tseed to 1e-012
Changing Tseed to 1e-007
Changing Tseed to 1e-013
Changing Tseed to 1e-006
Changing Tseed to 1e-014
Changing Tseed to 1e-005
Changing Tseed to 1e-015
Changing Tseed to 0.0001
Changing Tseed to 1e-016
+Changing Tseed to 1e-009
Changing Tseed to 1e-011
Changing Tseed to 1e-008
Changing Tseed to 1e-012
Changing Tseed to 1e-007
Changing Tseed to 1e-013
Changing Tseed to 1e-006
Changing Tseed to 1e-014
Changing Tseed to 1e-005
Changing Tseed to 1e-015
Changing Tseed to 0.0001
Changing Tseed to 1e-016
+Changing Tseed to 1e-009
Changing Tseed to 1e-011
Changing Tseed to 1e-008
Changing Tseed to 1e-012
Changing Tseed to 1e-007
Changing Tseed to 1e-013
Changing Tseed to 1e-006
Changing Tseed to 1e-014
Changing Tseed to 1e-005
Changing Tseed to 1e-015
Changing Tseed to 0.0001
Changing Tseed to 1e-016
+Changing Tseed to 1e-009
Changing Tseed to 1e-011
Changing Tseed to 1e-008
Changing Tseed to 1e-012
Changing Tseed to 1e-007
Changing Tseed to 1e-013
Changing Tseed to 1e-006
Changing Tseed to 1e-014
Changing Tseed to 1e-005
Changing Tseed to 1e-015
Changing Tseed to 0.0001
Changing Tseed to 1e-016
+Changing Tseed to 1e-009
Changing Tseed to 1e-011
Changing Tseed to 1e-008
Changing Tseed to 1e-012
Changing Tseed to 1e-007
Changing Tseed to 1e-013
Changing Tseed to 1e-006
Changing Tseed to 1e-014
Changing Tseed to 1e-005
Changing Tseed to 1e-015
Changing Tseed to 0.0001
Changing Tseed to 1e-016
+Changing Tseed to 1e-009
Changing Tseed to 1e-011
Changing Tseed to 1e-008
Changing Tseed to 1e-012
Changing Tseed to 1e-007
Changing Tseed to 1e-013
Changing Tseed to 1e-006
Changing Tseed to 1e-014
Changing Tseed to 1e-005
Changing Tseed to 1e-015
Changing Tseed to 0.0001
Changing Tseed to 1e-016
+Changing Tseed to 1e-009
Changing Tseed to 1e-011
Changing Tseed to 1e-008
Changing Tseed to 1e-012
Changing Tseed to 1e-007
Changing Tseed to 1e-013
Changing Tseed to 1e-006
Changing Tseed to 1e-014
Changing Tseed to 1e-005
Changing Tseed to 1e-015
Changing Tseed to 0.0001
Changing Tseed to 1e-016
+Changing Tseed to 1e-009
Changing Tseed to 1e-011
Changing Tseed to 1e-008
Changing Tseed to 1e-012
Changing Tseed to 1e-007
Changing Tseed to 1e-013
Changing Tseed to 1e-006
Changing Tseed to 1e-014
Changing Tseed to 1e-005
Changing Tseed to 1e-015
Changing Tseed to 0.0001
Changing Tseed to 1e-016
+Changing Tseed to 1e-009
Changing Tseed to 1e-011
Changing Tseed to 1e-008
Changing Tseed to 1e-012
Changing Tseed to 1e-007
Changing Tseed to 1e-013
Changing Tseed to 1e-006
Changing Tseed to 1e-014
Changing Tseed to 1e-005
Changing Tseed to 1e-015
Changing Tseed to 0.0001
Changing Tseed to 1e-016
+Changing Tseed to 1e-009
Changing Tseed to 1e-011
Changing Tseed to 1e-008
Changing Tseed to 1e-012
Changing Tseed to 1e-007
Changing Tseed to 1e-013
Changing Tseed to 1e-006
Changing Tseed to 1e-014
Changing Tseed to 1e-005
Changing Tseed to 1e-015
Changing Tseed to 0.0001
Changing Tseed to 1e-016
+Changing Tseed to 1e-009
Changing Tseed to 1e-011
Changing Tseed to 1e-008
Changing Tseed to 1e-012
Changing Tseed to 1e-007
Changing Tseed to 1e-013
Changing Tseed to 1e-006
Changing Tseed to 1e-014
Changing Tseed to 1e-005
Changing Tseed to 1e-015
Changing Tseed to 0.0001
Changing Tseed to 1e-016
+Changing Tseed to 1e-009
Changing Tseed to 1e-011
Changing Tseed to 1e-008
Changing Tseed to 1e-012
Changing Tseed to 1e-007
Changing Tseed to 1e-013
Changing Tseed to 1e-006
Changing Tseed to 1e-014
Changing Tseed to 1e-005
Changing Tseed to 1e-015
Changing Tseed to 0.0001
Changing Tseed to 1e-016
+Changing Tseed to 1e-009
Changing Tseed to 1e-011
Changing Tseed to 1e-008
Changing Tseed to 1e-012
Changing Tseed to 1e-007
Changing Tseed to 1e-013
Changing Tseed to 1e-006
Changing Tseed to 1e-014
Changing Tseed to 1e-005
Changing Tseed to 1e-015
Changing Tseed to 0.0001
Changing Tseed to 1e-016
+Changing Tseed to 1e-009
Changing Tseed to 1e-011
Changing Tseed to 1e-008
Changing Tseed to 1e-012
Changing Tseed to 1e-007
Changing Tseed to 1e-013
Changing Tseed to 1e-006
Changing Tseed to 1e-014
Changing Tseed to 1e-005
Changing Tseed to 1e-015
Changing Tseed to 0.0001
Changing Tseed to 1e-016
+Changing Tseed to 1e-009
Changing Tseed to 1e-011
Changing Tseed to 1e-008
Changing Tseed to 1e-012
Changing Tseed to 1e-007
Changing Tseed to 1e-013
Changing Tseed to 1e-006
Changing Tseed to 1e-014
Changing Tseed to 1e-005
Changing Tseed to 1e-015
Changing Tseed to 0.0001
Changing Tseed to 1e-016
+Changing Tseed to 1e-009
Changing Tseed to 1e-011
Changing Tseed to 1e-008
Changing Tseed to 1e-012
Changing Tseed to 1e-007
Changing Tseed to 1e-013
Changing Tseed to 1e-006
Changing Tseed to 1e-014
Changing Tseed to 1e-005
Changing Tseed to 1e-015
Changing Tseed to 0.0001
Changing Tseed to 1e-016
+Changing Tseed to 1e-009
Changing Tseed to 1e-011
Changing Tseed to 1e-008
Changing Tseed to 1e-012
Changing Tseed to 1e-007
Changing Tseed to 1e-013
Changing Tseed to 1e-006
Changing Tseed to 1e-014
Changing Tseed to 1e-005
Changing Tseed to 1e-015
Changing Tseed to 0.0001
Changing Tseed to 1e-016
+Changing Tseed to 1e-009
Changing Tseed to 1e-011
Changing Tseed to 1e-008
Changing Tseed to 1e-012
Changing Tseed to 1e-007
Changing Tseed to 1e-013
Changing Tseed to 1e-006
Changing Tseed to 1e-014
Changing Tseed to 1e-005
Changing Tseed to 1e-015
Changing Tseed to 0.0001
Changing Tseed to 1e-016
+Changing Tseed to 1e-009
Changing Tseed to 1e-011
to 1.125e-011
Heightened Def Con from 1.125e-011 +++++++++++++++++++++++++++to 2.26125e-009
Heightened Def Con from 2.26125e-009 +++++++++++++++++++to 2.26394e-009
Heightened Def Con from 2.26394e-009 +++++++++++++++to 2.26398e-009
Heightened Def Con from 1.91525e-008 to 2.01681e-008
Heightened Def Con from 4.9982e-005 to 4.9983e-005
Heightened Def Con from 5.45971e-005 to 5.45972e-005
Heightened Def Con from 5.77933e-005 to 5.78073e-005
Heightened Def Con from 5.93008e-005 to 5.93009e-005
Heightened Def Con from 6.29752e-005 to 6.29912e-005
Heightened Def Con from 6.40431e-005 to 6.40432e-005
Heightened Def Con from 6.40529e-005 to 6.40619e-005
Heightened Def Con from 6.80986e-005 to 6.81066e-005
Heightened Def Con from 6.88436e-005 to 6.88437e-005
Heightened Def Con from 6.88534e-005 to 6.88624e-005
Heightened Def Con from 7.30996e-005 to 7.31156e-005
Heightened Def Con from 7.37133e-005 to 7.37135e-005
Heightened Def Con from 7.37232e-005 to 7.37322e-005
Heightened Def Con from 7.80241e-005 to 7.80401e-005
Heightened Def Con from 7.86642e-005 to 7.86644e-005
Heightened Def Con from 7.86741e-005 to 7.86831e-005
Heightened Def Con from 8.28616e-005 to 8.28776e-005
Heightened Def Con from 8.36967e-005 to 8.36968e-005
Heightened Def Con from 8.37064e-005 to 8.37154e-005
Heightened Def Con from 8.76365e-005 to 8.76476e-005
Heightened Def Con from 8.88045e-005 to 8.88047e-005
Heightened Def Con from 8.88144e-005 to 8.88234e-005
Heightened Def Con from 9.23201e-005 to 9.23401e-005
Heightened Def Con from 9.39725e-005 to 9.39726e-005
Heightened Def Con from 9.39824e-005 to 9.39895e-005
Heightened Def Con from 9.69801e-005 to 9.69991e-005
Heightened Def Con from 9.91748e-005 to 9.9175e-005
Heightened Def Con from 0.000104384 to 0.000104384
Heightened Def Con from 0.000109567 to 0.000109567
Heightened Def Con from 0.000110991 to 0.000110998
Heightened Def Con from 0.0001147 to 0.0001147
Heightened Def Con from 0.00011976 to 0.00011976
Heightened Def Con from 0.000121434 to 0.000121435
Heightened Def Con from 0.00012474 to 0.00012474
Heightened Def Con from 0.000125414 to 0.000125414
Heightened Def Con from 0.000125426 to 0.000125433
Heightened Def Con from 0.000129634 to 0.000129636
Heightened Def Con from 0.000129637 to 0.000129637
Heightened Def Con from 0.000130399 to 0.000130399
Heightened Def Con from 0.00013041 to 0.000130417
Heightened Def Con from 0.000134462 to 0.000134462
Heightened Def Con from 0.000135471 to 0.000135472
Heightened Def Con from 0.000135483 to 0.00013549
Heightened Def Con from 0.000139223 to 0.000139223
Heightened Def Con from 0.000140629 to 0.000140633
Heightened Def Con from 0.000140634 to 0.000140635
Heightened Def Con from 0.000143935 to 0.000143937
Heightened Def Con from 0.000143938 to 0.000143938
Heightened Def Con from 0.000145855 to 0.000145855
Heightened Def Con from 0.000148626 to 0.000148627
Heightened Def Con from 0.000148628 to 0.000148628
Heightened Def Con from 0.000151111 to 0.000151111
Heightened Def Con from 0.000151113 to 0.000151133
Heightened Def Con from 0.00015331 to 0.00015331
Heightened Def Con from 0.000153313 to 0.000153332
Heightened Def Con from 0.000156352 to 0.000156353
Heightened Def Con from 0.000156355 to 0.000156355
Heightened Def Con from 0.000158007 to 0.000158007
Heightened Def Con from 0.000161553 to 0.000161554
Heightened Def Con from 0.000161556 to 0.000161556
Heightened Def Con from 0.000162731 to 0.000162737
Heightened Def Con from 0.000162738 to 0.000162738
Heightened Def Con from 0.000162748 to 0.000162754
Heightened Def Con from 0.000166687 to 0.000166687
Heightened Def Con from 0.000167513 to 0.000167518
Heightened Def Con from 0.00016752 to 0.00016752
Heightened Def Con from 0.00016753 to 0.000167537
Heightened Def Con from 0.000171733 to 0.000171734
Heightened Def Con from 0.000171736 to 0.000171736
Heightened Def Con from 0.000172369 to 0.000172369
Heightened Def Con from 0.00017238 to 0.000172387
Heightened Def Con from 0.000176677 to 0.000176679
Heightened Def Con from 0.000176679 to 0.00017668
Heightened Def Con from 0.000177291 to 0.000177296
Heightened Def Con from 0.000177297 to 0.000177298
Heightened Def Con from 0.000177308 to 0.000177315
Heightened Def Con from 0.000181539 to 0.00018154
Heightened Def Con from 0.000182303 to 0.000182306
Heightened Def Con from 0.000182307 to 0.000182307
Heightened Def Con from 0.000182318 to 0.000182325
Heightened Def Con from 0.000186317 to 0.000186317
Heightened Def Con from 0.00018739 to 0.000187396
Heightened Def Con from 0.000187397 to 0.000187397
Heightened Def Con from 0.000187407 to 0.000187418
Heightened Def Con from 0.000191036 to 0.000191036
Heightened Def Con from 0.000192542 to 0.000192548
Heightened Def Con from 0.000192549 to 0.000192549
Heightened Def Con from 0.00019256 to 0.000192571
Heightened Def Con from 0.000195704 to 0.000195705
Heightened Def Con from 0.000197746 to 0.000197747
Heightened Def Con from 0.000200355 to 0.000200355
Heightened Def Con from 0.000202956 to 0.000202956
Heightened Def Con from 0.000202956 to 0.000202957
Heightened Def Con from 0.000202957 to 0.000202957
Heightened Def Con from 0.000205006 to 0.000205006
Heightened Def Con from 0.000208147 to 0.000208149
Heightened Def Con from 0.00020815 to 0.00020815
Heightened Def Con from 0.000209684 to 0.000209684
Heightened Def Con from 0.000209696 to 0.000209706
Heightened Def Con from 0.000213298 to 0.000213298
Heightened Def Con from 0.000214405 to 0.000214405
Heightened Def Con from 0.000214417 to 0.000214427
Heightened Def Con from 0.00021838 to 0.000218381
Heightened Def Con from 0.000219192 to 0.000219192
Heightened Def Con from 0.000219204 to 0.00021921
Heightened Def Con from 0.000223383 to 0.000223384
Heightened Def Con from 0.00022406 to 0.000224061
Heightened Def Con from 0.000224072 to 0.000224078
Heightened Def Con from 0.0002283 to 0.000228302
Heightened Def Con from 0.000228304 to 0.000228304
Heightened Def Con from 0.000229022 to 0.000229022
Heightened Def Con from 0.000229034 to 0.00022904
Heightened Def Con from 0.000233146 to 0.000233146
Heightened Def Con from 0.000234073 to 0.000234073
Heightened Def Con from 0.000234084 to 0.00023409
Heightened Def Con from 0.000237923 to 0.000237923
Heightened Def Con from 0.000239215 to 0.000239215
Heightened Def Con from 0.000239226 to 0.000239236
Heightened Def Con from 0.000242649 to 0.000242649
Heightened Def Con from 0.000244412 to 0.000244416
Heightened Def Con from 0.000244418 to 0.000244418
Heightened Def Con from 0.000247341 to 0.000247343
Heightened Def Con from 0.000247344 to 0.000247344
Heightened Def Con from 0.000249672 to 0.000249672
Heightened Def Con from 0.000249676 to 0.000249694
Heightened Def Con from 0.000252026 to 0.000252026
Heightened Def Con from 0.000254917 to 0.000254917
Heightened Def Con from 0.000254918 to 0.000254918
Heightened Def Con from 0.000256717 to 0.000256717
Heightened Def Con from 0.000260138 to 0.000260138
Heightened Def Con from 0.000261436 to 0.000261436
Heightened Def Con from 0.000261447 to 0.000261458
Heightened Def Con from 0.000265284 to 0.000265286
Heightened Def Con from 0.000265287 to 0.000265287
Heightened Def Con from 0.000266196 to 0.000266202
Heightened Def Con from 0.000266203 to 0.000266203
Heightened Def Con from 0.000266213 to 0.000266222
Heightened Def Con from 0.00027036 to 0.00027036
Heightened Def Con from 0.000271029 to 0.000271032
Heightened Def Con from 0.000271033 to 0.000271033
Heightened Def Con from 0.000271044 to 0.000271051
Heightened Def Con from 0.00027533 to 0.000275332
Heightened Def Con from 0.000275333 to 0.000275333
Heightened Def Con from 0.000275938 to 0.000275939
Heightened Def Con from 0.000275949 to 0.000275956
Heightened Def Con from 0.000280219 to 0.000280219
Heightened Def Con from 0.000280922 to 0.000280925
Heightened Def Con from 0.000280926 to 0.000280926
Heightened Def Con from 0.000280937 to 0.000280944
Heightened Def Con from 0.000285013 to 0.000285015
Heightened Def Con from 0.000285015 to 0.000285016
Heightened Def Con from 0.000285987 to 0.000285993
Heightened Def Con from 0.000285994 to 0.000285994
Heightened Def Con from 0.000286005 to 0.000286013
Heightened Def Con from 0.000289748 to 0.000289748
Heightened Def Con from 0.000291125 to 0.000291131
Heightened Def Con from 0.000291131 to 0.000291131
Heightened Def Con from 0.000291142 to 0.000291153
Heightened Def Con from 0.000294432 to 0.000294432
Heightened Def Con from 0.000296319 to 0.000296319
Heightened Def Con from 0.000299084 to 0.000299085
Heightened Def Con from 0.000301529 to 0.000301529
Heightened Def Con from 0.00030153 to 0.000301551
Heightened Def Con from 0.000303733 to 0.000303733
Heightened Def Con from 0.000303736 to 0.000303754
Heightened Def Con from 0.000306728 to 0.00030673
Heightened Def Con from 0.000306731 to 0.000306731
Heightened Def Con from 0.000308395 to 0.000308399
Heightened Def Con from 0.0003084 to 0.000308401
Heightened Def Con from 0.00031189 to 0.000311892
Heightened Def Con from 0.000311893 to 0.000311893
Heightened Def Con from 0.000313106 to 0.000313106
Heightened Def Con from 0.000313118 to 0.000313128
Heightened Def Con from 0.000316995 to 0.000316995
Heightened Def Con from 0.000317871 to 0.000317871
Heightened Def Con from 0.000317882 to 0.000317888
Heightened Def Con from 0.000322017 to 0.000322019
Heightened Def Con from 0.000322021 to 0.000322021
Heightened Def Con from 0.000322715 to 0.000322715
Heightened Def Con from 0.000322727 to 0.000322733
Heightened Def Con from 0.00032696 to 0.000326962
Heightened Def Con from 0.000326963 to 0.000326963
Heightened Def Con from 0.000327651 to 0.000327651
Heightened Def Con from 0.000327662 to 0.000327668
Heightened Def Con from 0.000331826 to 0.000331827
Heightened Def Con from 0.000332678 to 0.000332679
Heightened Def Con from 0.00033269 to 0.000332696
Heightened Def Con from 0.000336619 to 0.000336619
Heightened Def Con from 0.000337795 to 0.000337795
Heightened Def Con from 0.000337807 to 0.000337815
Heightened Def Con from 0.000341358 to 0.000341358
Heightened Def Con from 0.000342982 to 0.000342986
Heightened Def Con from 0.000342987 to 0.000342987
Heightened Def Con from 0.000342999 to 0.000343009
Heightened Def Con from 0.000346059 to 0.000346059
Heightened Def Con from 0.000348226 to 0.000348226
Heightened Def Con from 0.000350743 to 0.000350744
Heightened Def Con from 0.000353482 to 0.000353482
Heightened Def Con from 0.000353482 to 0.000353482
Heightened Def Con from 0.00035543 to 0.00035543
Heightened Def Con from 0.000358711 to 0.000358711
Heightened Def Con from 0.000360141 to 0.000360141
Heightened Def Con from 0.000360152 to 0.000360163
Heightened Def Con from 0.000363883 to 0.000363883
Heightened Def Con from 0.000364892 to 0.000364892
Heightened Def Con from 0.000364903 to 0.000364914
Heightened Def Con from 0.00036898 to 0.000368981
Heightened Def Con from 0.000369696 to 0.000369701
Heightened Def Con from 0.000369703 to 0.000369703
Heightened Def Con from 0.000369713 to 0.00036972
Heightened Def Con from 0.000373982 to 0.000373982
Heightened Def Con from 0.000374588 to 0.000374588
Heightened Def Con from 0.000374598 to 0.000374605
Heightened Def Con from 0.000378888 to 0.000378888
Heightened Def Con from 0.000379552 to 0.000379553
Heightened Def Con from 0.000379563 to 0.00037957
Heightened Def Con from 0.000383704 to 0.000383704
Heightened Def Con from 0.000384593 to 0.000384599
Heightened Def Con from 0.000384599 to 0.000384599
Heightened Def Con from 0.00038461 to 0.000384617
Heightened Def Con from 0.000388455 to 0.000388457
Heightened Def Con from 0.000388458 to 0.000388458
Heightened Def Con from 0.000389713 to 0.000389719
Heightened Def Con from 0.00038972 to 0.00038972
Heightened Def Con from 0.00038973 to 0.000389741
Heightened Def Con from 0.000393145 to 0.000393145
Heightened Def Con from 0.000394896 to 0.000394896
Heightened Def Con from 0.00039781 to 0.00039781
Heightened Def Con from 0.000400102 to 0.000400102
Heightened Def Con from 0.000402458 to 0.000402458
Heightened Def Con from 0.000405305 to 0.000405307
Heightened Def Con from 0.000405308 to 0.000405308
Heightened Def Con from 0.000407116 to 0.000407117
Heightened Def Con from 0.000410485 to 0.000410485
Heightened Def Con from 0.000411803 to 0.000411807
Heightened Def Con from 0.000411808 to 0.000411808
Heightened Def Con from 0.00041182 to 0.00041183
Heightened Def Con from 0.000415605 to 0.000415605
Heightened Def Con from 0.000416559 to 0.000416559
Heightened Def Con from 0.000416571 to 0.000416577
Heightened Def Con from 0.000420649 to 0.000420651
Heightened Def Con from 0.000420652 to 0.000420652
Heightened Def Con from 0.000421377 to 0.000421377
Heightened Def Con from 0.000421388 to 0.000421394
Heightened Def Con from 0.000425613 to 0.000425615
Heightened Def Con from 0.000425617 to 0.000425617
Heightened Def Con from 0.000426289 to 0.000426289
Heightened Def Con from 0.0004263 to 0.000426306
Heightened Def Con from 0.000430501 to 0.000430501
Heightened Def Con from 0.00043129 to 0.00043129
Heightened Def Con from 0.000431302 to 0.000431308
Heightened Def Con from 0.000435313 to 0.000435313
Heightened Def Con from 0.000436387 to 0.000436387
Heightened Def Con from 0.000436398 to 0.000436404
Heightened Def Con from 0.000440064 to 0.000440064
Heightened Def Con from 0.000441553 to 0.000441557
Heightened Def Con from 0.000441558 to 0.000441558
Heightened Def Con from 0.00044157 to 0.000441579
Heightened Def Con from 0.000444771 to 0.000444773
Heightened Def Con from 0.000444774 to 0.000444774
Heightened Def Con from 0.000446791 to 0.000446791
Heightened Def Con from 0.000449459 to 0.00044946
Heightened Def Con from 0.000449461 to 0.000449461
Heightened Def Con from 0.00045204 to 0.000452041
Heightened Def Con from 0.000454144 to 0.000454145
Heightened Def Con from 0.000457282 to 0.000457282
Heightened Def Con from 0.000458839 to 0.000458845
Heightened Def Con from 0.000458846 to 0.000458846
Heightened Def Con from 0.000458856 to 0.000458858
Heightened Def Con from 0.000462466 to 0.000462467
Heightened Def Con from 0.000462469 to 0.000462469
Heightened Def Con from 0.000463578 to 0.000463584
Heightened Def Con from 0.000463584 to 0.000463585
Heightened Def Con from 0.000463595 to 0.000463606
Heightened Def Con from 0.000467588 to 0.000467589
Heightened Def Con from 0.000468373 to 0.000468376
Heightened Def Con from 0.000468377 to 0.000468378
Heightened Def Con from 0.000468388 to 0.000468395
Heightened Def Con from 0.00047262 to 0.00047262
Heightened Def Con from 0.000473237 to 0.00047324
Heightened Def Con from 0.000473241 to 0.000473241
Heightened Def Con from 0.000473252 to 0.000473259
Heightened Def Con from 0.000477551 to 0.000477551
Heightened Def Con from 0.000478184 to 0.000478184
Heightened Def Con from 0.000478194 to 0.000478201
Heightened Def Con from 0.000482398 to 0.000482398
Heightened Def Con from 0.000483204 to 0.000483207
Heightened Def Con from 0.000483209 to 0.000483209
Heightened Def Con from 0.000483219 to 0.000483226
Heightened Def Con from 0.00048716 to 0.00048716
Heightened Def Con from 0.000488305 to 0.000488308
Heightened Def Con from 0.000488309 to 0.000488309
Heightened Def Con from 0.00048832 to 0.000488328
Heightened Def Con from 0.000491867 to 0.000491867
Heightened Def Con from 0.000493468 to 0.000493471
Heightened Def Con from 0.000493472 to 0.000493472
Heightened Def Con from 0.000493482 to 0.000493484
Heightened Def Con from 0.000496528 to 0.000496528
Heightened Def Con from 0.000498674 to 0.000498674
Heightened Def Con from 0.000501181 to 0.000501181
Heightened Def Con from 0.000501181 to 0.000501202
Heightened Def Con from 0.000503881 to 0.000503881
Heightened Def Con from 0.000503883 to 0.000503883
Heightened Def Con from 0.000505832 to 0.000505832
Heightened Def Con from 0.000509067 to 0.000509069
Heightened Def Con from 0.00050907 to 0.00050907
Heightened Def Con from 0.000510517 to 0.000510517
Heightened Def Con from 0.000510528 to 0.000510537
Heightened Def Con from 0.000514208 to 0.000514208
Heightened Def Con from 0.000515249 to 0.000515249
Heightened Def Con from 0.00051526 to 0.00051527
Heightened Def Con from 0.000519277 to 0.000519277
Heightened Def Con from 0.00052005 to 0.00052005
Heightened Def Con from 0.000520062 to 0.000520068
Heightened Def Con from 0.000524261 to 0.000524263
Heightened Def Con from 0.000524264 to 0.000524264
Heightened Def Con from 0.00052493 to 0.000524931
Heightened Def Con from 0.000524942 to 0.000524948
Heightened Def Con from 0.000529169 to 0.000529169
Heightened Def Con from 0.000529908 to 0.000529908
Heightened Def Con from 0.00052992 to 0.000529926
Heightened Def Con from 0.000533996 to 0.000533998
Heightened Def Con from 0.000534 to 0.000534
Heightened Def Con from 0.000534973 to 0.000534973
Heightened Def Con from 0.000534985 to 0.000534991
Heightened Def Con from 0.000538763 to 0.000538766
Heightened Def Con from 0.000538767 to 0.000538767
Heightened Def Con from 0.000540128 to 0.000540128
Heightened Def Con from 0.000540139 to 0.000540149
Heightened Def Con from 0.000543486 to 0.000543486
Heightened Def Con from 0.000545339 to 0.000545344
Heightened Def Con from 0.000545345 to 0.000545345
Heightened Def Con from 0.000548176 to 0.000548176
Heightened Def Con from 0.000550598 to 0.000550599
Heightened Def Con from 0.000550601 to 0.00055062
Heightened Def Con from 0.000552859 to 0.00055286
Heightened Def Con from 0.000552861 to 0.000552881
Heightened Def Con from 0.000555849 to 0.000555849
Heightened Def Con from 0.000557553 to 0.000557553
Heightened Def Con from 0.000561052 to 0.000561053
Heightened Def Con from 0.000561055 to 0.000561055
Heightened Def Con from 0.000562273 to 0.000562279
Heightened Def Con from 0.00056228 to 0.00056228
Heightened Def Con from 0.00056229 to 0.000562301
Heightened Def Con from 0.000566195 to 0.000566195
Heightened Def Con from 0.000567056 to 0.000567057
Heightened Def Con from 0.000567067 to 0.000567074
Heightened Def Con from 0.000571244 to 0.000571246
Heightened Def Con from 0.000571247 to 0.000571247
Heightened Def Con from 0.000571893 to 0.000571898
Heightened Def Con from 0.000571899 to 0.000571899
Heightened Def Con from 0.00057191 to 0.000571917
Heightened Def Con from 0.000576202 to 0.000576204
Heightened Def Con from 0.000576205 to 0.000576205
Heightened Def Con from 0.000576813 to 0.000576818
Heightened Def Con from 0.000576819 to 0.00057682
Heightened Def Con from 0.00057683 to 0.000576837
Heightened Def Con from 0.000581069 to 0.00058107
Heightened Def Con from 0.000581072 to 0.000581072
Heightened Def Con from 0.000581818 to 0.000581821
Heightened Def Con from 0.000581822 to 0.000581822
Heightened Def Con from 0.000581833 to 0.00058184
Heightened Def Con from 0.000585858 to 0.000585858
Heightened Def Con from 0.000586899 to 0.000586902
Heightened Def Con from 0.000586903 to 0.000586903
Heightened Def Con from 0.000586914 to 0.000586923
Heightened Def Con from 0.000590576 to 0.000590577
Heightened Def Con from 0.000590578 to 0.000590578
Heightened Def Con from 0.000592047 to 0.00059205
Heightened Def Con from 0.000592051 to 0.000592051
Heightened Def Con from 0.000592062 to 0.000592073
Heightened Def Con from 0.000595248 to 0.000595249
Heightened Def Con from 0.000595251 to 0.000595251
Heightened Def Con from 0.000597244 to 0.000597244
Heightened Def Con from 0.000599905 to 0.000599906
Heightened Def Con from 0.000602456 to 0.000602456
Heightened Def Con from 0.000604552 to 0.000604552
Heightened Def Con from 0.000607652 to 0.000607652
Heightened Def Con from 0.000609228 to 0.000609228
Heightened Def Con from 0.000612805 to 0.000612805
Heightened Def Con from 0.000613944 to 0.000613944
Heightened Def Con from 0.000613955 to 0.000613965
Heightened Def Con from 0.000617894 to 0.000617894
Heightened Def Con from 0.00061872 to 0.000618721
Heightened Def Con from 0.000618732 to 0.000618738
Heightened Def Con from 0.000622905 to 0.000622905
Heightened Def Con from 0.000623584 to 0.000623584
Heightened Def Con from 0.000623596 to 0.000623602
Heightened Def Con from 0.000627833 to 0.000627833
Heightened Def Con from 0.000628533 to 0.000628533
Heightened Def Con from 0.000628544 to 0.00062855
Heightened Def Con from 0.000632683 to 0.000632683
Heightened Def Con from 0.000633577 to 0.000633577
Heightened Def Con from 0.000633588 to 0.000633594
Heightened Def Con from 0.000637462 to 0.000637464
Heightened Def Con from 0.000637465 to 0.000637465
Heightened Def Con from 0.00063871 to 0.00063871
Heightened Def Con from 0.000638722 to 0.000638732
Heightened Def Con from 0.000642192 to 0.000642194
Heightened Def Con from 0.000642196 to 0.000642196
Heightened Def Con from 0.000643905 to 0.000643905
Heightened Def Con from 0.00064391 to 0.00064391
Heightened Def Con from 0.000646891 to 0.000646891
Heightened Def Con from 0.000649155 to 0.000649155
Heightened Def Con from 0.000651574 to 0.000651574
Heightened Def Con from 0.000654406 to 0.000654407
Heightened Def Con from 0.000654408 to 0.000654408
Heightened Def Con from 0.000656264 to 0.000656264
Heightened Def Con from 0.000659628 to 0.000659628
Heightened Def Con from 0.000660972 to 0.000660978
Heightened Def Con from 0.000660979 to 0.000660979
Heightened Def Con from 0.00066099 to 0.000660992
Heightened Def Con from 0.000664788 to 0.000664788
Heightened Def Con from 0.000665734 to 0.00066574
Heightened Def Con from 0.000665741 to 0.000665741
Heightened Def Con from 0.000665751 to 0.00066576
Heightened Def Con from 0.000669864 to 0.000669866
Heightened Def Con from 0.000669867 to 0.000669867
Heightened Def Con from 0.000670557 to 0.000670562
Heightened Def Con from 0.000670563 to 0.000670563
Heightened Def Con from 0.000670574 to 0.000670581
Heightened Def Con from 0.000674854 to 0.000674854
Heightened Def Con from 0.000675462 to 0.000675462
Heightened Def Con from 0.000675473 to 0.00067548
Heightened Def Con from 0.000679743 to 0.000679744
Heightened Def Con from 0.000680437 to 0.00068044
Heightened Def Con from 0.000680441 to 0.000680441
Heightened Def Con from 0.000680452 to 0.000680459
Heightened Def Con from 0.00068455 to 0.00068455
Heightened Def Con from 0.000685502 to 0.000685502
Heightened Def Con from 0.000685513 to 0.000685521
Heightened Def Con from 0.000689288 to 0.000689288
Heightened Def Con from 0.00069063 to 0.000690633
Heightened Def Con from 0.000690634 to 0.000690634
Heightened Def Con from 0.000690645 to 0.000690656
Heightened Def Con from 0.000693973 to 0.000693973
Heightened Def Con from 0.000695817 to 0.000695817
Heightened Def Con from 0.000698632 to 0.000698632
Heightened Def Con from 0.000701027 to 0.000701027
Heightened Def Con from 0.000701028 to 0.000701048
Heightened Def Con from 0.000703278 to 0.000703278
Heightened Def Con from 0.000703282 to 0.0007033
Heightened Def Con from 0.000706226 to 0.000706228
Heightened Def Con from 0.000706229 to 0.000706229
Heightened Def Con from 0.000707933 to 0.000707937
Heightened Def Con from 0.000707939 to 0.000707939
Heightened Def Con from 0.000711394 to 0.000711396
Heightened Def Con from 0.000711397 to 0.000711397
Heightened Def Con from 0.000712642 to 0.000712643
Heightened Def Con from 0.000712654 to 0.000712664
Heightened Def Con from 0.000716505 to 0.000716506
Heightened Def Con from 0.000717405 to 0.000717405
Heightened Def Con from 0.000717417 to 0.000717423
Heightened Def Con from 0.000721535 to 0.000721537
Heightened Def Con from 0.000721538 to 0.000721538
Heightened Def Con from 0.000722236 to 0.000722236
Heightened Def Con from 0.000722248 to 0.000722254
Heightened Def Con from 0.000726485 to 0.000726487
Heightened Def Con from 0.000726488 to 0.000726488
Heightened Def Con from 0.000727164 to 0.000727165
Heightened Def Con from 0.000727176 to 0.000727182
Heightened Def Con from 0.000731359 to 0.000731359
Heightened Def Con from 0.000732185 to 0.000732185
Heightened Def Con from 0.000732197 to 0.000732203
Heightened Def Con from 0.000736158 to 0.000736158
Heightened Def Con from 0.000737296 to 0.000737296
Heightened Def Con from 0.000737308 to 0.000737318
Heightened Def Con from 0.000740903 to 0.000740903
Heightened Def Con from 0.000742475 to 0.000742479
Heightened Def Con from 0.000742481 to 0.000742481
Heightened Def Con from 0.000742492 to 0.000742502
Heightened Def Con from 0.000745607 to 0.000745607
Heightened Def Con from 0.000747714 to 0.000747714
Heightened Def Con from 0.00075029 to 0.00075029
Heightened Def Con from 0.000750291 to 0.000750291
Heightened Def Con from 0.000752972 to 0.000752972
Heightened Def Con from 0.000754976 to 0.000754976
Heightened Def Con from 0.0007582 to 0.000758201
Heightened Def Con from 0.000758203 to 0.000758203
Heightened Def Con from 0.000759677 to 0.000759683
Heightened Def Con from 0.000759684 to 0.000759684
Heightened Def Con from 0.000759694 to 0.000759705
Heightened Def Con from 0.00076338 to 0.000763381
Heightened Def Con from 0.000763382 to 0.000763382
Heightened Def Con from 0.000764424 to 0.00076443
Heightened Def Con from 0.00076443 to 0.00076443
Heightened Def Con from 0.000764441 to 0.000764448
Heightened Def Con from 0.000768481 to 0.000768483
Heightened Def Con from 0.000768483 to 0.000768484
Heightened Def Con from 0.000769235 to 0.000769235
Heightened Def Con from 0.000769245 to 0.000769252
Heightened Def Con from 0.000773499 to 0.000773499
Heightened Def Con from 0.000774107 to 0.00077411
Heightened Def Con from 0.000774111 to 0.000774111
Heightened Def Con from 0.000774122 to 0.000774129
Heightened Def Con from 0.000778408 to 0.00077841
Heightened Def Con from 0.000778411 to 0.000778411
Heightened Def Con from 0.000779069 to 0.000779069
Heightened Def Con from 0.000779079 to 0.000779086
Heightened Def Con from 0.000783242 to 0.000783242
Heightened Def Con from 0.000784108 to 0.000784108
Heightened Def Con from 0.000784118 to 0.000784125
Heightened Def Con from 0.000787995 to 0.000787995
Heightened Def Con from 0.000789214 to 0.000789221
Heightened Def Con from 0.000789221 to 0.000789221
Heightened Def Con from 0.000789232 to 0.000789243
Heightened Def Con from 0.000792688 to 0.000792689
Heightened Def Con from 0.00079269 to 0.000792691
Heightened Def Con from 0.000794389 to 0.000794392
Heightened Def Con from 0.000794393 to 0.000794393
Heightened Def Con from 0.000797351 to 0.000797351
Heightened Def Con from 0.000799598 to 0.000799598
Heightened Def Con from 0.000799601 to 0.00079962
Heightened Def Con from 0.000801999 to 0.000801999
Heightened Def Con from 0.000802001 to 0.000802021
Heightened Def Con from 0.000804806 to 0.000804806
Heightened Def Con from 0.000806662 to 0.000806662
Heightened Def Con from 0.000809983 to 0.000809985
Heightened Def Con from 0.000809986 to 0.000809986
Heightened Def Con from 0.000811347 to 0.000811351
Heightened Def Con from 0.000811352 to 0.000811353
Heightened Def Con from 0.000811364 to 0.000811374
Heightened Def Con from 0.000815113 to 0.000815113
Heightened Def Con from 0.000816089 to 0.000816089
Heightened Def Con from 0.0008161 to 0.000816106
Heightened Def Con from 0.000820164 to 0.000820166
Heightened Def Con from 0.000820168 to 0.000820168
Heightened Def Con from 0.000820904 to 0.000820904
Heightened Def Con from 0.000820915 to 0.000820921
Heightened Def Con from 0.00082514 to 0.00082514
Heightened Def Con from 0.0008258 to 0.0008258
Heightened Def Con from 0.000825811 to 0.000825817
Heightened Def Con from 0.000830028 to 0.00083003
Heightened Def Con from 0.000830032 to 0.000830032
Heightened Def Con from 0.000830792 to 0.000830792
Heightened Def Con from 0.000830804 to 0.00083081
Heightened Def Con from 0.00083485 to 0.00083485
Heightened Def Con from 0.000835879 to 0.000835879
Heightened Def Con from 0.000835891 to 0.000835897
Heightened Def Con from 0.000839606 to 0.000839606
Heightened Def Con from 0.000841042 to 0.000841046
Heightened Def Con from 0.000841047 to 0.000841047
Heightened Def Con from 0.000841059 to 0.000841069
Heightened Def Con from 0.00084432 to 0.00084432
Heightened Def Con from 0.000846275 to 0.000846275
Heightened Def Con from 0.000849005 to 0.000849006
Heightened Def Con from 0.000849007 to 0.000849007
Heightened Def Con from 0.000851529 to 0.000851529
Heightened Def Con from 0.000853691 to 0.000853691
Heightened Def Con from 0.000853694 to 0.000853713
Heightened Def Con from 0.000856769 to 0.00085677
Heightened Def Con from 0.000856771 to 0.000856771
Heightened Def Con from 0.000858389 to 0.00085839
Heightened Def Con from 0.000861963 to 0.000861964
Heightened Def Con from 0.000861966 to 0.000861966
Heightened Def Con from 0.000863116 to 0.000863122
Heightened Def Con from 0.000863122 to 0.000863123
Heightened Def Con from 0.000863133 to 0.000863144
Heightened Def Con from 0.000867091 to 0.000867092
Heightened Def Con from 0.000867911 to 0.000867911
Heightened Def Con from 0.000867922 to 0.000867929
Heightened Def Con from 0.000872131 to 0.000872131
Heightened Def Con from 0.000872762 to 0.000872765
Heightened Def Con from 0.000872777 to 0.000872784
Heightened Def Con from 0.000877069 to 0.000877069
Heightened Def Con from 0.0008777 to 0.000877701
Heightened Def Con from 0.000877711 to 0.000877718
Heightened Def Con from 0.000881918 to 0.00088192
Heightened Def Con from 0.000881921 to 0.000881921
Heightened Def Con from 0.000882711 to 0.000882716
Heightened Def Con from 0.000882718 to 0.000882718
Heightened Def Con from 0.000882729 to 0.000882736
Heightened Def Con from 0.000886693 to 0.000886695
Heightened Def Con from 0.000886696 to 0.000886696
Heightened Def Con from 0.000887806 to 0.000887812
Heightened Def Con from 0.000887813 to 0.000887813
Heightened Def Con from 0.000887823 to 0.00088783
Heightened Def Con from 0.000891403 to 0.000891404
Heightened Def Con from 0.00089297 to 0.000892971
Heightened Def Con from 0.000892981 to 0.000892992
Heightened Def Con from 0.000896072 to 0.000896073
Heightened Def Con from 0.000896075 to 0.000896075
Heightened Def Con from 0.000898169 to 0.000898169
Heightened Def Con from 0.000900726 to 0.000900726
Heightened Def Con from 0.000900726 to 0.000900748
Heightened Def Con from 0.000903378 to 0.000903378
Heightened Def Con from 0.000903378 to 0.000903378
Heightened Def Con from 0.00090338 to 0.00090338
Heightened Def Con from 0.000905377 to 0.000905377
Heightened Def Con from 0.000908571 to 0.000908571
Heightened Def Con from 0.00091005 to 0.000910055
Heightened Def Con from 0.000910056 to 0.000910056
Heightened Def Con from 0.000910067 to 0.000910069
Heightened Def Con from 0.000913714 to 0.000913714
Heightened Def Con from 0.000914783 to 0.000914783
Heightened Def Con from 0.000914794 to 0.000914802
Heightened Def Con from 0.00091879 to 0.00091879
Heightened Def Con from 0.000919576 to 0.000919576
Heightened Def Con from 0.000919587 to 0.000919593
Heightened Def Con from 0.000923781 to 0.000923783
Heightened Def Con from 0.000923785 to 0.000923785
Heightened Def Con from 0.000924448 to 0.000924448
Heightened Def Con from 0.00092446 to 0.000924466
Heightened Def Con from 0.000928699 to 0.000928699
Heightened Def Con from 0.000929414 to 0.000929414
Heightened Def Con from 0.000929426 to 0.000929432
Heightened Def Con from 0.000933535 to 0.000933535
Heightened Def Con from 0.000934492 to 0.000934498
Heightened Def Con from 0.000938304 to 0.000938306
Heightened Def Con from 0.000938307 to 0.000938307
Heightened Def Con from 0.000939625 to 0.000939625
Heightened Def Con from 0.000939637 to 0.000939647
Heightened Def Con from 0.00094303 to 0.00094303
Heightened Def Con from 0.000944834 to 0.000944838
Heightened Def Con from 0.00094484 to 0.00094484
Heightened Def Con from 0.000947724 to 0.000947724
Heightened Def Con from 0.000950082 to 0.000950082
Heightened Def Con from 0.000952406 to 0.000952406
Heightened Def Con from 0.000952407 to 0.000952428
Heightened Def Con from 0.000955334 to 0.000955334
Heightened Def Con from 0.000955335 to 0.000955335
Heightened Def Con from 0.000957098 to 0.000957098
Heightened Def Con from 0.000960551 to 0.000960551
Heightened Def Con from 0.000961816 to 0.000961819
Heightened Def Con from 0.00096182 to 0.00096182
Heightened Def Con from 0.000961831 to 0.000961842
Heightened Def Con from 0.000965692 to 0.000965692
Heightened Def Con from 0.000966565 to 0.000966567
Heightened Def Con from 0.000966584 to 0.000966589
Heightened Def Con from 0.000966591 to 0.000966591
Heightened Def Con from 0.000966602 to 0.00096661
Heightened Def Con from 0.000970755 to 0.000970755
Heightened Def Con from 0.000971427 to 0.000971427
Heightened Def Con from 0.000971438 to 0.000971445
Heightened Def Con from 0.000975721 to 0.000975721
Heightened Def Con from 0.000976332 to 0.000976337
Heightened Def Con from 0.000976339 to 0.000976339
Heightened Def Con from 0.000976349 to 0.000976356
Heightened Def Con from 0.000980604 to 0.000980604
Heightened Def Con from 0.000981334 to 0.000981335
Heightened Def Con from 0.000981345 to 0.000981352
Heightened Def Con from 0.000985391 to 0.000985391
Heightened Def Con from 0.000986401 to 0.000986407
Heightened Def Con from 0.000986408 to 0.000986408
Heightened Def Con from 0.000986418 to 0.000986427
Heightened Def Con from 0.000990114 to 0.000990115
Heightened Def Con from 0.000990117 to 0.000990117
Heightened Def Con from 0.000991544 to 0.00099155
Heightened Def Con from 0.000991551 to 0.000991551
Heightened Def Con from 0.000991561 to 0.000991566
Heightened Def Con from 0.000994799 to 0.000994799
Heightened Def Con from 0.000996741 to 0.000996741
Heightened Def Con from 0.000999447 to 0.000999447
Heightened Def Con from 0.000999449 to 0.000999449
Heightened Def Con from 0.00100195 to 0.00100195
Heightened Def Con from 0.0010041 to 0.0010041
Heightened Def Con from 0.00100715 to 0.00100715
Heightened Def Con from 0.00100876 to 0.00100877
Heightened Def Con from 0.00100877 to 0.00100877
Heightened Def Con from 0.00101231 to 0.00101231
Heightened Def Con from 0.00101231 to 0.00101231
Heightened Def Con from 0.00101348 to 0.00101348
Heightened Def Con from 0.00101349 to 0.0010135
Heightened Def Con from 0.0010174 to 0.0010174
Heightened Def Con from 0.00101825 to 0.00101825
Heightened Def Con from 0.00101826 to 0.00101827
Heightened Def Con from 0.00102242 to 0.00102242
Heightened Def Con from 0.0010231 to 0.0010231
Heightened Def Con from 0.00102311 to 0.00102312
Heightened Def Con from 0.00102736 to 0.00102736
Heightened Def Con from 0.00102805 to 0.00102805
Heightened Def Con from 0.00102806 to 0.00102806
Heightened Def Con from 0.00103221 to 0.00103221
Heightened Def Con from 0.00103308 to 0.00103308
Heightened Def Con from 0.00103309 to 0.00103309
Heightened Def Con from 0.001037 to 0.001037
Heightened Def Con from 0.001037 to 0.001037
Heightened Def Con from 0.0010382 to 0.0010382
Heightened Def Con from 0.00103822 to 0.00103823
Heightened Def Con from 0.00104174 to 0.00104174
Heightened Def Con from 0.0010434 to 0.0010434
Heightened Def Con from 0.0010434 to 0.0010434
Heightened Def Con from 0.00104341 to 0.00104342
Heightened Def Con from 0.00104643 to 0.00104644
Heightened Def Con from 0.00104644 to 0.00104644
Heightened Def Con from 0.00104864 to 0.00104864
Heightened Def Con from 0.00105112 to 0.00105112
Heightened Def Con from 0.00105112 to 0.00105112
Heightened Def Con from 0.00105389 to 0.00105389
Heightened Def Con from 0.0010539 to 0.0010539
Heightened Def Con from 0.00105581 to 0.00105581
Heightened Def Con from 0.00105912 to 0.00105912
Heightened Def Con from 0.00106053 to 0.00106054
Heightened Def Con from 0.00106429 to 0.00106429
Heightened Def Con from 0.00106527 to 0.00106528
Heightened Def Con from 0.00106528 to 0.00106528
Heightened Def Con from 0.00106529 to 0.00106529
Heightened Def Con from 0.00106938 to 0.00106938
Heightened Def Con from 0.00107009 to 0.00107009
Heightened Def Con from 0.00107009 to 0.00107009
Heightened Def Con from 0.0010701 to 0.00107011
Heightened Def Con from 0.00107437 to 0.00107437
Heightened Def Con from 0.00107498 to 0.00107498
Heightened Def Con from 0.00107498 to 0.00107498
Heightened Def Con from 0.00107499 to 0.001075
Heightened Def Con from 0.00107927 to 0.00107927
Heightened Def Con from 0.00107995 to 0.00107995
Heightened Def Con from 0.00107995 to 0.00107995
Heightened Def Con from 0.00107997 to 0.00107997
Heightened Def Con from 0.00108408 to 0.00108408
Heightened Def Con from 0.00108501 to 0.00108501
Heightened Def Con from 0.00108502 to 0.00108503
Heightened Def Con from 0.00108883 to 0.00108883
Heightened Def Con from 0.00109013 to 0.00109013
Heightened Def Con from 0.00109014 to 0.00109016
Heightened Def Con from 0.00109352 to 0.00109352
Heightened Def Con from 0.00109352 to 0.00109352
Heightened Def Con from 0.00109531 to 0.00109531
Heightened Def Con from 0.00109531 to 0.00109531
Heightened Def Con from 0.00109817 to 0.00109817
Heightened Def Con from 0.00110052 to 0.00110052
Heightened Def Con from 0.00110282 to 0.00110282
Heightened Def Con from 0.00110282 to 0.00110284
Heightened Def Con from 0.00110572 to 0.00110572
Heightened Def Con from 0.00110573 to 0.00110573
Heightened Def Con from 0.00110748 to 0.00110748
Heightened Def Con from 0.0011109 to 0.0011109
Heightened Def Con from 0.00111218 to 0.00111218
Heightened Def Con from 0.00111218 to 0.00111218
Heightened Def Con from 0.0011122 to 0.00111221
Heightened Def Con from 0.00111601 to 0.00111601
Heightened Def Con from 0.00111693 to 0.00111693
Heightened Def Con from 0.00111694 to 0.00111695
Heightened Def Con from 0.00112105 to 0.00112105
Heightened Def Con from 0.00112105 to 0.00112105
Heightened Def Con from 0.00112177 to 0.00112177
Heightened Def Con from 0.00112178 to 0.00112178
Heightened Def Con from 0.00112601 to 0.00112601
Heightened Def Con from 0.00112668 to 0.00112668
Heightened Def Con from 0.00112669 to 0.00112669
Heightened Def Con from 0.00113089 to 0.00113089
Heightened Def Con from 0.00113089 to 0.00113089
Heightened Def Con from 0.00113169 to 0.00113169
Heightened Def Con from 0.0011317 to 0.0011317
Heightened Def Con from 0.0011357 to 0.0011357
Heightened Def Con from 0.00113679 to 0.00113679
Heightened Def Con from 0.0011368 to 0.00113681
Heightened Def Con from 0.00114044 to 0.00114044
Heightened Def Con from 0.00114044 to 0.00114044
Heightened Def Con from 0.00114196 to 0.00114197
Heightened Def Con from 0.00114197 to 0.00114197
Heightened Def Con from 0.00114198 to 0.00114199
Heightened Def Con from 0.00114515 to 0.00114515
Heightened Def Con from 0.00114515 to 0.00114515
Heightened Def Con from 0.0011472 to 0.0011472
Heightened Def Con from 0.00114984 to 0.00114984
Heightened Def Con from 0.00115245 to 0.00115245
Heightened Def Con from 0.00115245 to 0.00115248
Heightened Def Con from 0.00115452 to 0.00115452
Heightened Def Con from 0.00115769 to 0.00115769
Heightened Def Con from 0.00115769 to 0.00115769
Heightened Def Con from 0.0011592 to 0.00115922
Heightened Def Con from 0.00115922 to 0.00115922
Heightened Def Con from 0.00115923 to 0.00115924
Heightened Def Con from 0.00116288 to 0.00116288
Heightened Def Con from 0.00116396 to 0.00116397
Heightened Def Con from 0.00116397 to 0.00116397
Heightened Def Con from 0.00116398 to 0.00116399
Heightened Def Con from 0.00116799 to 0.00116799
Heightened Def Con from 0.00116877 to 0.00116877
Heightened Def Con from 0.00116878 to 0.00116878
Heightened Def Con from 0.00117301 to 0.00117301
Heightened Def Con from 0.00117363 to 0.00117363
Heightened Def Con from 0.00117363 to 0.00117363
Heightened Def Con from 0.00117365 to 0.00117365
Heightened Def Con from 0.00117793 to 0.00117793
Heightened Def Con from 0.00117794 to 0.00117794
Heightened Def Con from 0.00117858 to 0.00117858
Heightened Def Con from 0.00117858 to 0.00117858
Heightened Def Con from 0.00117859 to 0.0011786
Heightened Def Con from 0.00118277 to 0.00118277
Heightened Def Con from 0.00118361 to 0.00118361
Heightened Def Con from 0.00118361 to 0.00118361
Heightened Def Con from 0.00118362 to 0.00118363
Heightened Def Con from 0.00118753 to 0.00118754
Heightened Def Con from 0.00118754 to 0.00118754
Heightened Def Con from 0.00118871 to 0.00118872
Heightened Def Con from 0.00118872 to 0.00118872
Heightened Def Con from 0.00118873 to 0.00118874
Heightened Def Con from 0.00119223 to 0.00119223
Heightened Def Con from 0.00119223 to 0.00119223
Heightened Def Con from 0.00119388 to 0.00119389
Heightened Def Con from 0.00119389 to 0.00119389
Heightened Def Con from 0.0011939 to 0.0011939
Heightened Def Con from 0.0011969 to 0.0011969
Heightened Def Con from 0.00119909 to 0.00119909
Heightened Def Con from 0.00120154 to 0.00120154
Heightened Def Con from 0.0012043 to 0.0012043
Heightened Def Con from 0.0012062 to 0.0012062
Heightened Def Con from 0.00120949 to 0.00120949
Heightened Def Con from 0.00121089 to 0.00121089
Heightened Def Con from 0.0012109 to 0.00121091
Heightened Def Con from 0.00121461 to 0.00121462
Heightened Def Con from 0.00121462 to 0.00121462
Heightened Def Con from 0.00121563 to 0.00121563
Heightened Def Con from 0.00121564 to 0.00121565
Heightened Def Con from 0.00121968 to 0.00121968
Heightened Def Con from 0.00122043 to 0.00122043
Heightened Def Con from 0.00122044 to 0.00122045
Heightened Def Con from 0.00122466 to 0.00122466
Heightened Def Con from 0.00122532 to 0.00122532
Heightened Def Con from 0.00122533 to 0.00122534
Heightened Def Con from 0.00122956 to 0.00122956
Heightened Def Con from 0.00122956 to 0.00122956
Heightened Def Con from 0.0012303 to 0.0012303
Heightened Def Con from 0.00123031 to 0.00123032
Heightened Def Con from 0.00123438 to 0.00123438
Heightened Def Con from 0.00123439 to 0.00123439
Heightened Def Con from 0.00123538 to 0.00123538
Heightened Def Con from 0.00123539 to 0.0012354
Heightened Def Con from 0.00123912 to 0.00123912
Heightened Def Con from 0.00123914 to 0.00123915
Heightened Def Con from 0.00123915 to 0.00123915
Heightened Def Con from 0.00124054 to 0.00124054
Heightened Def Con from 0.00124054 to 0.00124054
Heightened Def Con from 0.00124056 to 0.00124057
Heightened Def Con from 0.00124386 to 0.00124386
Heightened Def Con from 0.00124386 to 0.00124386
Heightened Def Con from 0.00124576 to 0.00124576
Heightened Def Con from 0.00124855 to 0.00124855
Heightened Def Con from 0.00125101 to 0.00125101
Heightened Def Con from 0.00125101 to 0.00125103
Heightened Def Con from 0.00125324 to 0.00125324
Heightened Def Con from 0.00125626 to 0.00125626
Heightened Def Con from 0.00125626 to 0.00125626
Heightened Def Con from 0.00125793 to 0.00125793
Heightened Def Con from 0.00125793 to 0.00125793
Heightened Def Con from 0.00126146 to 0.00126146
Heightened Def Con from 0.00126146 to 0.00126146
Heightened Def Con from 0.00126266 to 0.00126266
Heightened Def Con from 0.00126266 to 0.00126266
Heightened Def Con from 0.00126267 to 0.00126268
Heightened Def Con from 0.0012666 to 0.0012666
Heightened Def Con from 0.0012666 to 0.0012666
Heightened Def Con from 0.00126744 to 0.00126744
Heightened Def Con from 0.00126745 to 0.00126746
Heightened Def Con from 0.00127165 to 0.00127165
Heightened Def Con from 0.00127229 to 0.00127229
Heightened Def Con from 0.00127229 to 0.00127229
Heightened Def Con from 0.0012723 to 0.00127231
Heightened Def Con from 0.00127659 to 0.00127659
Heightened Def Con from 0.00127721 to 0.00127722
Heightened Def Con from 0.00127722 to 0.00127722
Heightened Def Con from 0.00127723 to 0.00127724
Heightened Def Con from 0.00128145 to 0.00128145
Heightened Def Con from 0.00128223 to 0.00128223
Heightened Def Con from 0.00128224 to 0.00128225
Heightened Def Con from 0.00128623 to 0.00128623
Heightened Def Con from 0.00128731 to 0.00128731
Heightened Def Con from 0.00128732 to 0.00128732
Heightened Def Con from 0.00128733 to 0.00128734
Heightened Def Con from 0.00129095 to 0.00129095
Heightened Def Con from 0.00129247 to 0.00129247
Heightened Def Con from 0.00129248 to 0.00129249
Heightened Def Con from 0.00129562 to 0.00129562
Heightened Def Con from 0.00129766 to 0.00129766
Heightened Def Con from 0.00130027 to 0.00130027
Heightened Def Con from 0.00130027 to 0.00130027
Heightened Def Con from 0.00130287 to 0.00130287
Heightened Def Con from 0.00130287 to 0.00130287
Heightened Def Con from 0.00130493 to 0.00130493
Heightened Def Con from 0.00130806 to 0.00130807
Heightened Def Con from 0.00130807 to 0.00130807
Heightened Def Con from 0.00130959 to 0.0013096
Heightened Def Con from 0.0013096 to 0.0013096
Heightened Def Con from 0.00130961 to 0.00130962
Heightened Def Con from 0.00131321 to 0.00131322
Heightened Def Con from 0.00131322 to 0.00131322
Heightened Def Con from 0.00131432 to 0.00131432
Heightened Def Con from 0.00131433 to 0.00131434
Heightened Def Con from 0.0013183 to 0.0013183
Heightened Def Con from 0.0013191 to 0.0013191
Heightened Def Con from 0.00131911 to 0.00131912
Heightened Def Con from 0.0013233 to 0.0013233
Heightened Def Con from 0.00132397 to 0.00132397
Heightened Def Con from 0.00132398 to 0.00132399
Heightened Def Con from 0.00132823 to 0.00132823
Heightened Def Con from 0.00132892 to 0.00132893
Heightened Def Con from 0.00132894 to 0.00132894
Heightened Def Con from 0.00133307 to 0.00133307
Heightened Def Con from 0.00133398 to 0.00133398
Heightened Def Con from 0.00133399 to 0.00133399
Heightened Def Con from 0.00133784 to 0.00133785
Heightened Def Con from 0.00133785 to 0.00133785
Heightened Def Con from 0.00133912 to 0.00133912
Heightened Def Con from 0.00133913 to 0.00133914
Heightened Def Con from 0.00134257 to 0.00134257
Heightened Def Con from 0.00134433 to 0.00134433
Heightened Def Con from 0.00134727 to 0.00134727
Heightened Def Con from 0.00134727 to 0.00134727
Heightened Def Con from 0.00134957 to 0.00134957
Heightened Def Con from 0.00134957 to 0.00134959
Heightened Def Con from 0.00135195 to 0.00135195
Heightened Def Con from 0.00135195 to 0.00135197
Heightened Def Con from 0.00135482 to 0.00135482
Heightened Def Con from 0.00135664 to 0.00135664
Heightened Def Con from 0.00136004 to 0.00136004
Heightened Def Con from 0.00136135 to 0.00136136
Heightened Def Con from 0.00136136 to 0.00136136
Heightened Def Con from 0.00136137 to 0.00136138
Heightened Def Con from 0.00136519 to 0.00136519
Heightened Def Con from 0.00136612 to 0.00136612
Heightened Def Con from 0.00136612 to 0.00136613
Heightened Def Con from 0.00136614 to 0.00136614
Heightened Def Con from 0.00137027 to 0.00137027
Heightened Def Con from 0.00137095 to 0.00137095
Heightened Def Con from 0.00137524 to 0.00137524
Heightened Def Con from 0.00137586 to 0.00137586
Heightened Def Con from 0.00137587 to 0.00137588
Heightened Def Con from 0.00138013 to 0.00138013
Heightened Def Con from 0.00138084 to 0.00138084
Heightened Def Con from 0.00138085 to 0.00138085
Heightened Def Con from 0.00138086 to 0.00138086
Heightened Def Con from 0.00138492 to 0.00138493
Heightened Def Con from 0.00138493 to 0.00138493
Heightened Def Con from 0.00138591 to 0.00138591
Heightened Def Con from 0.00138591 to 0.00138591
Heightened Def Con from 0.00138592 to 0.00138593
Heightened Def Con from 0.00138966 to 0.00138966
Heightened Def Con from 0.00139104 to 0.00139105
Heightened Def Con from 0.00139105 to 0.00139105
Heightened Def Con from 0.00139106 to 0.00139107
Heightened Def Con from 0.00139434 to 0.00139434
Heightened Def Con from 0.00139434 to 0.00139434
Heightened Def Con from 0.00139624 to 0.00139624
Heightened Def Con from 0.001399 to 0.001399
Heightened Def Con from 0.00140145 to 0.00140145
Heightened Def Con from 0.00140145 to 0.00140147
Heightened Def Con from 0.00140365 to 0.00140365
Heightened Def Con from 0.00140365 to 0.00140367
Heightened Def Con from 0.00140664 to 0.00140665
Heightened Def Con from 0.00140665 to 0.00140665
Heightened Def Con from 0.00140831 to 0.00140831
Heightened Def Con from 0.00141181 to 0.00141181
Heightened Def Con from 0.00141181 to 0.00141181
Heightened Def Con from 0.00141302 to 0.00141302
Heightened Def Con from 0.00141303 to 0.00141304
Heightened Def Con from 0.00141691 to 0.00141691
Heightened Def Con from 0.00141778 to 0.00141778
Heightened Def Con from 0.00141779 to 0.0014178
Heightened Def Con from 0.00142194 to 0.00142194
Heightened Def Con from 0.00142262 to 0.00142262
Heightened Def Con from 0.00142264 to 0.00142264
Heightened Def Con from 0.00142688 to 0.00142688
Heightened Def Con from 0.00142688 to 0.00142688
Heightened Def Con from 0.00142756 to 0.00142756
Heightened Def Con from 0.00142757 to 0.00142758
Heightened Def Con from 0.00143174 to 0.00143175
Heightened Def Con from 0.00143175 to 0.00143175
Heightened Def Con from 0.00143258 to 0.00143258
Heightened Def Con from 0.00143259 to 0.0014326
Heightened Def Con from 0.00143654 to 0.00143654
Heightened Def Con from 0.00143654 to 0.00143654
Heightened Def Con from 0.0014377 to 0.0014377
Heightened Def Con from 0.00143771 to 0.00143772
Heightened Def Con from 0.00144128 to 0.00144128
Heightened Def Con from 0.00144289 to 0.00144289
Heightened Def Con from 0.00144289 to 0.00144289
Heightened Def Con from 0.0014429 to 0.00144291
Heightened Def Con from 0.00144598 to 0.00144598
Heightened Def Con from 0.00144813 to 0.00144813
Heightened Def Con from 0.00145067 to 0.00145067
Heightened Def Con from 0.00145338 to 0.00145338
Heightened Def Con from 0.00145338 to 0.00145338
Heightened Def Con from 0.00145535 to 0.00145535
Heightened Def Con from 0.00145861 to 0.00145861
Heightened Def Con from 0.00145861 to 0.00145861
Heightened Def Con from 0.00146006 to 0.00146006
Heightened Def Con from 0.00146007 to 0.00146008
Heightened Def Con from 0.00146379 to 0.00146379
Heightened Def Con from 0.00146481 to 0.00146481
Heightened Def Con from 0.00146481 to 0.00146481
Heightened Def Con from 0.00146482 to 0.00146483
Heightened Def Con from 0.00146888 to 0.00146888
Heightened Def Con from 0.00146889 to 0.00146889
Heightened Def Con from 0.00146962 to 0.00146962
Heightened Def Con from 0.00146963 to 0.00146964
Heightened Def Con from 0.00147389 to 0.00147389
Heightened Def Con from 0.0014745 to 0.0014745
Heightened Def Con from 0.00147451 to 0.00147451
Heightened Def Con from 0.00147452 to 0.00147452
Heightened Def Con from 0.0014788 to 0.0014788
Heightened Def Con from 0.00147947 to 0.00147947
Heightened Def Con from 0.00147948 to 0.00147949
Heightened Def Con from 0.00148362 to 0.00148362
Heightened Def Con from 0.00148452 to 0.00148452
Heightened Def Con from 0.00148453 to 0.00148453
Heightened Def Con from 0.00148837 to 0.00148837
Heightened Def Con from 0.00148837 to 0.00148837
Heightened Def Con from 0.00148963 to 0.00148963
Heightened Def Con from 0.00148963 to 0.00148963
Heightened Def Con from 0.00148965 to 0.00148966
Heightened Def Con from 0.00149306 to 0.00149306
Heightened Def Con from 0.00149306 to 0.00149306
Heightened Def Con from 0.0014948 to 0.00149481
Heightened Def Con from 0.00149481 to 0.00149481
Heightened Def Con from 0.00149772 to 0.00149772
Heightened Def Con from 0.00150002 to 0.00150002
Heightened Def Con from 0.00150237 to 0.00150237
Heightened Def Con from 0.00150237 to 0.00150239
Heightened Def Con from 0.00150522 to 0.00150522
Heightened Def Con from 0.00150522 to 0.00150522
Heightened Def Con from 0.00150703 to 0.00150703
Heightened Def Con from 0.0015104 to 0.0015104
Heightened Def Con from 0.00151172 to 0.00151172
Heightened Def Con from 0.00151172 to 0.00151172
Heightened Def Con from 0.00151173 to 0.00151174
Heightened Def Con from 0.00151552 to 0.00151552
Heightened Def Con from 0.00151552 to 0.00151552
Heightened Def Con from 0.00151647 to 0.00151647
Heightened Def Con from 0.00151648 to 0.00151649
Heightened Def Con from 0.00152057 to 0.00152057
Heightened Def Con from 0.00152129 to 0.00152129
Heightened Def Con from 0.0015213 to 0.00152131
Heightened Def Con from 0.00152554 to 0.00152554
Heightened Def Con from 0.00152619 to 0.00152619
Heightened Def Con from 0.00152621 to 0.00152621
Heightened Def Con from 0.00153042 to 0.00153042
Heightened Def Con from 0.00153042 to 0.00153042
Heightened Def Con from 0.0015312 to 0.0015312
Heightened Def Con from 0.00153121 to 0.00153122
Heightened Def Con from 0.00153523 to 0.00153523
Heightened Def Con from 0.00153523 to 0.00153523
Heightened Def Con from 0.0015363 to 0.00153631
Heightened Def Con from 0.00153998 to 0.00153998
Heightened Def Con from 0.00153999 to 0.00153999
Heightened Def Con from 0.00154146 to 0.00154146
Heightened Def Con from 0.00154146 to 0.00154146
Heightened Def Con from 0.00154147 to 0.00154148
Heightened Def Con from 0.0015447 to 0.0015447
Heightened Def Con from 0.00154669 to 0.00154669
Heightened Def Con from 0.00154938 to 0.00154938
Heightened Def Con from 0.00155194 to 0.00155194
Heightened Def Con from 0.00155407 to 0.00155407
Heightened Def Con from 0.00155718 to 0.00155718
Heightened Def Con from 0.00155718 to 0.00155718
Heightened Def Con from 0.00155876 to 0.00155877
Heightened Def Con from 0.00155877 to 0.00155877
Heightened Def Con from 0.00155878 to 0.00155879
Heightened Def Con from 0.00156238 to 0.00156238
Heightened Def Con from 0.0015635 to 0.0015635
Heightened Def Con from 0.0015635 to 0.0015635
Heightened Def Con from 0.00156352 to 0.00156353
Heightened Def Con from 0.0015675 to 0.0015675
Heightened Def Con from 0.00156829 to 0.0015683
Heightened Def Con from 0.0015683 to 0.0015683
Heightened Def Con from 0.00156831 to 0.00156832
Heightened Def Con from 0.00157252 to 0.00157252
Heightened Def Con from 0.00157316 to 0.00157316
Heightened Def Con from 0.00157317 to 0.00157318
Heightened Def Con from 0.00157746 to 0.00157746
Heightened Def Con from 0.0015781 to 0.0015781
Heightened Def Con from 0.0015781 to 0.0015781
Heightened Def Con from 0.00157811 to 0.00157812
Heightened Def Con from 0.00158231 to 0.00158231
Heightened Def Con from 0.00158312 to 0.00158312
Heightened Def Con from 0.00158312 to 0.00158312
Heightened Def Con from 0.00158314 to 0.00158314
Heightened Def Con from 0.00158707 to 0.00158707
Heightened Def Con from 0.00158822 to 0.00158822
Heightened Def Con from 0.00158822 to 0.00158822
Heightened Def Con from 0.00158824 to 0.00158824
Heightened Def Con from 0.00159177 to 0.00159178
Heightened Def Con from 0.00159178 to 0.00159178
Heightened Def Con from 0.00159338 to 0.00159339
Heightened Def Con from 0.00159339 to 0.00159339
Heightened Def Con from 0.0015934 to 0.0015934
Heightened Def Con from 0.00159645 to 0.00159645
Heightened Def Con from 0.00159645 to 0.00159645
Heightened Def Con from 0.00159859 to 0.00159859
Heightened Def Con from 0.0016011 to 0.0016011
Heightened Def Con from 0.0016038 to 0.0016038
Heightened Def Con from 0.00160575 to 0.00160575
Heightened Def Con from 0.00160899 to 0.00160899
Heightened Def Con from 0.00161042 to 0.00161043
Heightened Def Con from 0.00161043 to 0.00161043
Heightened Def Con from 0.00161044 to 0.00161045
Heightened Def Con from 0.00161412 to 0.00161412
Heightened Def Con from 0.00161516 to 0.00161516
Heightened Def Con from 0.00161517 to 0.00161518
Heightened Def Con from 0.00161919 to 0.00161919
Heightened Def Con from 0.00161996 to 0.00161996
Heightened Def Con from 0.00161997 to 0.00161998
Heightened Def Con from 0.00162418 to 0.00162418
Heightened Def Con from 0.00162418 to 0.00162418
Heightened Def Con from 0.00162484 to 0.00162484
Heightened Def Con from 0.00162485 to 0.00162486
Heightened Def Con from 0.00162909 to 0.00162909
Heightened Def Con from 0.00162981 to 0.00162981
Heightened Def Con from 0.00162982 to 0.00162983
Heightened Def Con from 0.00163392 to 0.00163392
Heightened Def Con from 0.00163392 to 0.00163392
Heightened Def Con from 0.00163488 to 0.00163488
Heightened Def Con from 0.00163489 to 0.0016349
Heightened Def Con from 0.00163869 to 0.00163869
Heightened Def Con from 0.00164004 to 0.00164004
Heightened Def Con from 0.00164005 to 0.00164006
Heightened Def Con from 0.00164341 to 0.00164341
Heightened Def Con from 0.00164525 to 0.00164525
Heightened Def Con from 0.00164525 to 0.00164525
Heightened Def Con from 0.0016481 to 0.0016481
Heightened Def Con from 0.0016505 to 0.0016505
Heightened Def Con from 0.00165278 to 0.00165278
Heightened Def Con from 0.00165278 to 0.0016528
Heightened Def Con from 0.00165575 to 0.00165575
Heightened Def Con from 0.00165575 to 0.00165575
Heightened Def Con from 0.00165748 to 0.00165748
Heightened Def Con from 0.00166096 to 0.00166096
Heightened Def Con from 0.0016622 to 0.0016622
Heightened Def Con from 0.0016622 to 0.0016622
Heightened Def Con from 0.00166221 to 0.00166222
Heightened Def Con from 0.0016661 to 0.0016661
Heightened Def Con from 0.00166697 to 0.00166698
Heightened Def Con from 0.00166698 to 0.00166698
Heightened Def Con from 0.00166699 to 0.001667
Heightened Def Con from 0.00167115 to 0.00167115
Heightened Def Con from 0.00167115 to 0.00167115
Heightened Def Con from 0.00167181 to 0.00167182
Heightened Def Con from 0.00167182 to 0.00167182
Heightened Def Con from 0.00167183 to 0.00167184
Heightened Def Con from 0.00167611 to 0.00167611
Heightened Def Con from 0.00167673 to 0.00167674
Heightened Def Con from 0.00167674 to 0.00167674
Heightened Def Con from 0.00167675 to 0.00167675
Heightened Def Con from 0.00168098 to 0.00168098
Heightened Def Con from 0.00168174 to 0.00168174
Heightened Def Con from 0.00168175 to 0.00168176
Heightened Def Con from 0.00168577 to 0.00168577
Heightened Def Con from 0.00168682 to 0.00168682
Heightened Def Con from 0.00168683 to 0.00168684
Heightened Def Con from 0.00169049 to 0.00169049
Heightened Def Con from 0.00169049 to 0.00169049
Heightened Def Con from 0.00169196 to 0.00169197
Heightened Def Con from 0.00169197 to 0.00169197
Heightened Def Con from 0.00169198 to 0.00169199
Heightened Def Con from 0.00169517 to 0.00169517
Heightened Def Con from 0.00169716 to 0.00169716
Heightened Def Con from 0.00169982 to 0.00169982
Heightened Def Con from 0.00169982 to 0.00169982
Heightened Def Con from 0.00170237 to 0.00170237
Heightened Def Con from 0.00170237 to 0.00170237
Heightened Def Con from 0.00170447 to 0.00170447
Heightened Def Con from 0.00170756 to 0.00170757
Heightened Def Con from 0.00170757 to 0.00170757
Heightened Def Con from 0.00170914 to 0.00170914
Heightened Def Con from 0.00171272 to 0.00171272
Heightened Def Con from 0.00171385 to 0.00171385
Heightened Def Con from 0.00171387 to 0.00171387
Heightened Def Con from 0.00171781 to 0.00171781
Heightened Def Con from 0.00171863 to 0.00171863
Heightened Def Con from 0.00171864 to 0.00171865
Heightened Def Con from 0.00172282 to 0.00172282
Heightened Def Con from 0.00172349 to 0.00172349
Heightened Def Con from 0.0017235 to 0.00172351
Heightened Def Con from 0.00172775 to 0.00172775
Heightened Def Con from 0.00172844 to 0.00172844
Heightened Def Con from 0.00172845 to 0.00172845
Heightened Def Con from 0.0017326 to 0.0017326
Heightened Def Con from 0.0017326 to 0.0017326
Heightened Def Con from 0.00173348 to 0.00173348
Heightened Def Con from 0.0017335 to 0.0017335
Heightened Def Con from 0.00173738 to 0.00173739
Heightened Def Con from 0.00173739 to 0.00173739
Heightened Def Con from 0.00173861 to 0.00173861
Heightened Def Con from 0.00173862 to 0.00173863
Heightened Def Con from 0.00174212 to 0.00174212
Heightened Def Con from 0.00174381 to 0.00174381
Heightened Def Con from 0.00174382 to 0.00174382
Heightened Def Con from 0.00174682 to 0.00174682
Heightened Def Con from 0.00174906 to 0.00174906
Heightened Def Con from 0.0017515 to 0.0017515
Heightened Def Con from 0.00175431 to 0.00175431
Heightened Def Con from 0.00175432 to 0.00175432
Heightened Def Con from 0.00175619 to 0.00175619
Heightened Def Con from 0.00175953 to 0.00175953
Heightened Def Con from 0.00175954 to 0.00175954
Heightened Def Con from 0.00176089 to 0.0017609
Heightened Def Con from 0.0017609 to 0.0017609
Heightened Def Con from 0.00176091 to 0.00176092
Heightened Def Con from 0.0017647 to 0.0017647
Heightened Def Con from 0.00176566 to 0.00176566
Heightened Def Con from 0.00176567 to 0.00176568
Heightened Def Con from 0.00176978 to 0.00176978
Heightened Def Con from 0.00176978 to 0.00176978
Heightened Def Con from 0.00177048 to 0.00177048
Heightened Def Con from 0.00177049 to 0.0017705
Heightened Def Con from 0.00177476 to 0.00177476
Heightened Def Con from 0.00177538 to 0.00177538
Heightened Def Con from 0.00177538 to 0.00177538
Heightened Def Con from 0.00177539 to 0.0017754
Heightened Def Con from 0.00177966 to 0.00177966
Heightened Def Con from 0.00178036 to 0.00178036
Heightened Def Con from 0.00178037 to 0.00178038
Heightened Def Con from 0.00178446 to 0.00178446
Heightened Def Con from 0.00178541 to 0.00178542
Heightened Def Con from 0.00178542 to 0.00178542
Heightened Def Con from 0.00178543 to 0.00178544
Heightened Def Con from 0.0017892 to 0.0017892
Heightened Def Con from 0.0017892 to 0.0017892
Heightened Def Con from 0.00179054 to 0.00179055
Heightened Def Con from 0.00179055 to 0.00179055
Heightened Def Con from 0.00179056 to 0.00179057
Heightened Def Con from 0.00179389 to 0.00179389
Heightened Def Con from 0.00179572 to 0.00179573
Heightened Def Con from 0.00179573 to 0.00179573
Heightened Def Con from 0.00179854 to 0.00179854
Heightened Def Con from 0.00180094 to 0.00180094
Heightened Def Con from 0.00180319 to 0.00180319
Heightened Def Con from 0.00180614 to 0.00180614
Heightened Def Con from 0.00180785 to 0.00180786
Heightened Def Con from 0.00180786 to 0.00180786
Heightened Def Con from 0.00181131 to 0.00181131
Heightened Def Con from 0.00181256 to 0.00181256
Heightened Def Con from 0.00181257 to 0.00181258
Heightened Def Con from 0.00181642 to 0.00181642
Heightened Def Con from 0.00181642 to 0.00181642
Heightened Def Con from 0.00181732 to 0.00181732
Heightened Def Con from 0.00182145 to 0.00182145
Heightened Def Con from 0.00182146 to 0.00182146
Heightened Def Con from 0.00182215 to 0.00182215
Heightened Def Con from 0.00182216 to 0.00182216
Heightened Def Con from 0.0018264 to 0.00182641
Heightened Def Con from 0.00182641 to 0.00182641
Heightened Def Con from 0.00182707 to 0.00182707
Heightened Def Con from 0.00182708 to 0.00182709
Heightened Def Con from 0.00183128 to 0.00183128
Heightened Def Con from 0.00183128 to 0.00183128
Heightened Def Con from 0.00183209 to 0.00183209
Heightened Def Con from 0.0018321 to 0.00183211
Heightened Def Con from 0.00183608 to 0.00183608
Heightened Def Con from 0.00183608 to 0.00183608
Heightened Def Con from 0.0018372 to 0.0018372
Heightened Def Con from 0.00183721 to 0.00183722
Heightened Def Con from 0.00184082 to 0.00184082
Heightened Def Con from 0.00184238 to 0.00184238
Heightened Def Con from 0.00184238 to 0.00184238
Heightened Def Con from 0.00184239 to 0.0018424
Heightened Def Con from 0.00184553 to 0.00184553
Heightened Def Con from 0.00184762 to 0.00184762
Heightened Def Con from 0.00185021 to 0.00185021
Heightened Def Con from 0.00185021 to 0.00185021
Heightened Def Con from 0.00185287 to 0.00185287
Heightened Def Con from 0.00185287 to 0.0018529
Heightened Def Con from 0.0018549 to 0.0018549
Heightened Def Con from 0.0018581 to 0.0018581
Heightened Def Con from 0.0018596 to 0.0018596
Heightened Def Con from 0.00185961 to 0.00185961
Heightened Def Con from 0.00185962 to 0.00185962
Heightened Def Con from 0.00186329 to 0.00186329
Heightened Def Con from 0.00186435 to 0.00186435
Heightened Def Con from 0.00186435 to 0.00186435
Heightened Def Con from 0.00186436 to 0.00186437
Heightened Def Con from 0.00186839 to 0.0018684
Heightened Def Con from 0.00186915 to 0.00186915
Heightened Def Con from 0.00186917 to 0.00186917
Heightened Def Con from 0.0018734 to 0.0018734
Heightened Def Con from 0.00187403 to 0.00187403
Heightened Def Con from 0.00187404 to 0.00187405
Heightened Def Con from 0.00187833 to 0.00187833
Heightened Def Con from 0.00187899 to 0.00187899
Heightened Def Con from 0.001879 to 0.001879
Heightened Def Con from 0.00188315 to 0.00188316
Heightened Def Con from 0.00188402 to 0.00188402
Heightened Def Con from 0.00188402 to 0.00188402
Heightened Def Con from 0.00188403 to 0.00188404
Heightened Def Con from 0.00188791 to 0.00188791
Heightened Def Con from 0.00188914 to 0.00188914
Heightened Def Con from 0.00188915 to 0.00188916
Heightened Def Con from 0.00189261 to 0.00189261
Heightened Def Con from 0.0018943 to 0.00189431
Heightened Def Con from 0.00189431 to 0.00189431
Heightened Def Con from 0.00189727 to 0.00189727
Heightened Def Con from 0.00189951 to 0.00189951
Heightened Def Con from 0.00190191 to 0.00190191
Heightened Def Con from 0.00190192 to 0.00190194
Heightened Def Con from 0.00190472 to 0.00190472
Heightened Def Con from 0.00190657 to 0.00190657
Heightened Def Con from 0.0019099 to 0.0019099
Heightened Def Con from 0.00191126 to 0.00191126
Heightened Def Con from 0.00191126 to 0.00191126
Heightened Def Con from 0.00191127 to 0.00191128
Heightened Def Con from 0.00191503 to 0.00191503
Heightened Def Con from 0.00191503 to 0.00191503
Heightened Def Con from 0.001916 to 0.001916
Heightened Def Con from 0.00191602 to 0.00191602
Heightened Def Con from 0.00192008 to 0.00192008
Heightened Def Con from 0.00192081 to 0.00192081
Heightened Def Con from 0.00192082 to 0.00192083
Heightened Def Con from 0.00192506 to 0.00192506
Heightened Def Con from 0.00192506 to 0.00192506
Heightened Def Con from 0.00192571 to 0.00192571
Heightened Def Con from 0.00192572 to 0.00192573
Heightened Def Con from 0.00192995 to 0.00192995
Heightened Def Con from 0.00192995 to 0.00192995
Heightened Def Con from 0.0019307 to 0.0019307
Heightened Def Con from 0.00193071 to 0.00193072
Heightened Def Con from 0.00193477 to 0.00193477
Heightened Def Con from 0.00193477 to 0.00193477
Heightened Def Con from 0.00193579 to 0.00193579
Heightened Def Con from 0.0019358 to 0.0019358
Heightened Def Con from 0.00193952 to 0.00193953
Heightened Def Con from 0.00193953 to 0.00193953
Heightened Def Con from 0.00194095 to 0.00194095
Heightened Def Con from 0.00194095 to 0.00194095
Heightened Def Con from 0.00194097 to 0.00194098
Heightened Def Con from 0.00194424 to 0.00194424
Heightened Def Con from 0.00194618 to 0.00194618
Heightened Def Con from 0.00194893 to 0.00194893
Heightened Def Con from 0.00194893 to 0.00194893
Heightened Def Con from 0.00195143 to 0.00195143
Heightened Def Con from 0.00195143 to 0.00195145
Heightened Def Con from 0.00195361 to 0.00195361
Heightened Def Con from 0.00195362 to 0.00195363
Heightened Def Con from 0.00195667 to 0.00195667
Heightened Def Con from 0.00195667 to 0.00195667
Heightened Def Con from 0.00195831 to 0.00195831
Heightened Def Con from 0.00196187 to 0.00196187
Heightened Def Con from 0.00196188 to 0.00196188
Heightened Def Con from 0.00196304 to 0.00196304
Heightened Def Con from 0.00196304 to 0.00196304
Heightened Def Con from 0.00196305 to 0.00196307
Heightened Def Con from 0.001967 to 0.001967
Heightened Def Con from 0.00196782 to 0.00196783
Heightened Def Con from 0.00196783 to 0.00196783
[...]
Heightened Def Con from 0.00246128 to 0.00246128
Heightened Def Con from 0.00246129 to 0.0024613
Heightened Def Con from 0.0024651 to 0.0024651
Heightened Def Con from 0.0024651 to 0.0024651
Heightened Def Con from 0.00246605 to 0.00246605
Heightened Def Con from 0.00246606 to 0.00246607
Heightened Def Con from 0.00247017 to 0.00247017
Heightened Def Con from 0.00247087 to 0.00247087
Heightened Def Con from 0.00247087 to 0.00247087
Heightened Def Con from 0.00247089 to 0.00247089
Heightened Def Con from 0.00247515 to 0.00247515
Heightened Def Con from 0.00247577 to 0.00247578
Heightened Def Con from 0.00247578 to 0.00247578
Heightened Def Con from 0.00247579 to 0.0024758
Heightened Def Con from 0.00248004 to 0.00248004
Heightened Def Con from 0.00248076 to 0.00248076
Heightened Def Con from 0.00248076 to 0.00248076
Heightened Def Con from 0.00248077 to 0.00248078
Heightened Def Con from 0.00248484 to 0.00248484
Heightened Def Con from 0.00248582 to 0.00248583
Heightened Def Con from 0.00248583 to 0.00248583
Heightened Def Con from 0.00248584 to 0.00248585
Heightened Def Con from 0.00248958 to 0.00248958
Heightened Def Con from 0.00248958 to 0.00248958
Heightened Def Con from 0.00249096 to 0.00249096
Heightened Def Con from 0.00249096 to 0.00249096
Heightened Def Con from 0.00249097 to 0.00249099
Heightened Def Con from 0.00249426 to 0.00249426
Heightened Def Con from 0.00249615 to 0.00249615
Heightened Def Con from 0.00249891 to 0.00249891
Heightened Def Con from 0.00250136 to 0.00250136
Heightened Def Con from 0.00250136 to 0.00250138
Heightened Def Con from 0.00250356 to 0.00250356
Heightened Def Con from 0.00250356 to 0.00250358
Heightened Def Con from 0.00250656 to 0.00250656
Heightened Def Con from 0.00250656 to 0.00250656
Heightened Def Con from 0.00250823 to 0.00250823
Heightened Def Con from 0.00251172 to 0.00251173
Heightened Def Con from 0.00251173 to 0.00251173
Heightened Def Con from 0.00251293 to 0.00251293
Heightened Def Con from 0.00251295 to 0.00251296
Heightened Def Con from 0.00251683 to 0.00251683
Heightened Def Con from 0.0025177 to 0.0025177
Heightened Def Con from 0.00251771 to 0.00251771
Heightened Def Con from 0.00252186 to 0.00252186
Heightened Def Con from 0.00252254 to 0.00252254
Heightened Def Con from 0.00252255 to 0.00252256
Heightened Def Con from 0.0025268 to 0.0025268
Heightened Def Con from 0.0025268 to 0.0025268
Heightened Def Con from 0.00252747 to 0.00252747
Heightened Def Con from 0.00252748 to 0.00252749
Heightened Def Con from 0.00253167 to 0.00253167
Heightened Def Con from 0.00253249 to 0.0025325
Heightened Def Con from 0.00253251 to 0.00253251
Heightened Def Con from 0.00253646 to 0.00253646
Heightened Def Con from 0.00253761 to 0.00253761
Heightened Def Con from 0.00253762 to 0.00253763
Heightened Def Con from 0.0025412 to 0.0025412
Heightened Def Con from 0.00254279 to 0.0025428
Heightened Def Con from 0.0025428 to 0.0025428
Heightened Def Con from 0.00254281 to 0.00254281
Heightened Def Con from 0.00254591 to 0.00254591
Heightened Def Con from 0.00254804 to 0.00254804
Heightened Def Con from 0.00255059 to 0.00255059
Heightened Def Con from 0.00255059 to 0.00255059
Heightened Def Con from 0.00255329 to 0.00255329
Heightened Def Con from 0.00255528 to 0.00255528
Heightened Def Con from 0.00255852 to 0.00255852
Heightened Def Con from 0.00255998 to 0.00255998
Heightened Def Con from 0.00255999 to 0.00256001
Heightened Def Con from 0.0025637 to 0.0025637
Heightened Def Con from 0.00256473 to 0.00256473
Heightened Def Con from 0.00256473 to 0.00256473
Heightened Def Con from 0.00256475 to 0.00256475
Heightened Def Con from 0.00256879 to 0.00256879
Heightened Def Con from 0.00256954 to 0.00256954
Heightened Def Con from 0.00256954 to 0.00256954
Heightened Def Con from 0.00256955 to 0.00256956
Heightened Def Con from 0.0025738 to 0.0025738
Heightened Def Con from 0.0025738 to 0.0025738
Heightened Def Con from 0.00257442 to 0.00257442
Heightened Def Con from 0.00257444 to 0.00257444
Heightened Def Con from 0.00257871 to 0.00257871
Heightened Def Con from 0.00257938 to 0.00257939
Heightened Def Con from 0.00257939 to 0.00257939
Heightened Def Con from 0.0025794 to 0.0025794
Heightened Def Con from 0.00258353 to 0.00258353
Heightened Def Con from 0.00258442 to 0.00258443
Heightened Def Con from 0.00258443 to 0.00258443
Heightened Def Con from 0.00258444 to 0.00258445
Heightened Def Con from 0.00258828 to 0.00258828
Heightened Def Con from 0.00258828 to 0.00258828
Heightened Def Con from 0.00258954 to 0.00258955
Heightened Def Con from 0.00258955 to 0.00258955
Heightened Def Con from 0.00258956 to 0.00258957
Heightened Def Con from 0.00259298 to 0.00259298
Heightened Def Con from 0.00259472 to 0.00259472
Heightened Def Con from 0.00259764 to 0.00259764
Heightened Def Con from 0.00259764 to 0.00259764
Heightened Def Con from 0.00259993 to 0.00259993
Heightened Def Con from 0.00259993 to 0.00259995
Heightened Def Con from 0.00260229 to 0.00260229
Heightened Def Con from 0.00260229 to 0.00260231
Heightened Def Con from 0.00260514 to 0.00260514
Heightened Def Con from 0.00260695 to 0.00260695
Heightened Def Con from 0.00261031 to 0.00261031
Heightened Def Con from 0.00261163 to 0.00261163
Heightened Def Con from 0.00261164 to 0.00261164
Heightened Def Con from 0.00261165 to 0.00261166
Heightened Def Con from 0.00261544 to 0.00261544
Heightened Def Con from 0.00261638 to 0.00261639
Heightened Def Con from 0.0026164 to 0.0026164
Heightened Def Con from 0.00262049 to 0.00262049
Heightened Def Con from 0.0026212 to 0.0026212
Heightened Def Con from 0.00262121 to 0.00262122
Heightened Def Con from 0.00262545 to 0.00262545
Heightened Def Con from 0.00262546 to 0.00262546
Heightened Def Con from 0.00262611 to 0.00262611
Heightened Def Con from 0.00262612 to 0.00262613
Heightened Def Con from 0.00263034 to 0.00263034
Heightened Def Con from 0.00263111 to 0.00263111
Heightened Def Con from 0.00263112 to 0.00263112
Heightened Def Con from 0.00263515 to 0.00263515
Heightened Def Con from 0.00263515 to 0.00263516
Heightened Def Con from 0.0026362 to 0.0026362
Heightened Def Con from 0.00263621 to 0.00263621
Heightened Def Con from 0.00263991 to 0.00263991
Heightened Def Con from 0.00263991 to 0.00263991
Heightened Def Con from 0.00264136 to 0.00264137
Heightened Def Con from 0.00264137 to 0.00264137
Heightened Def Con from 0.00264462 to 0.00264462
Heightened Def Con from 0.00264462 to 0.00264462
Heightened Def Con from 0.0026466 to 0.0026466
Heightened Def Con from 0.0026493 to 0.00264931
Heightened Def Con from 0.00264931 to 0.00264931
Heightened Def Con from 0.00265185 to 0.00265185
Heightened Def Con from 0.00265185 to 0.00265187
Heightened Def Con from 0.00265399 to 0.00265399
Heightened Def Con from 0.00265709 to 0.00265709
Heightened Def Con from 0.00265709 to 0.0026571
Heightened Def Con from 0.00265869 to 0.00265869
Heightened Def Con from 0.00266228 to 0.00266228
Heightened Def Con from 0.00266229 to 0.00266229
Heightened Def Con from 0.00266343 to 0.00266343
Heightened Def Con from 0.00266344 to 0.00266345
Heightened Def Con from 0.0026674 to 0.0026674
Heightened Def Con from 0.00266822 to 0.00266822
Heightened Def Con from 0.00266823 to 0.00266824
Heightened Def Con from 0.00267243 to 0.00267243
Heightened Def Con from 0.00267243 to 0.00267243
Heightened Def Con from 0.00267307 to 0.00267308
Heightened Def Con from 0.00267308 to 0.00267308
Heightened Def Con from 0.00267309 to 0.0026731
Heightened Def Con from 0.00267738 to 0.00267738
Heightened Def Con from 0.00267802 to 0.00267802
Heightened Def Con from 0.00267803 to 0.00267804
Heightened Def Con from 0.00268222 to 0.00268222
Heightened Def Con from 0.00268304 to 0.00268304
Heightened Def Con from 0.00268305 to 0.00268306
Heightened Def Con from 0.00268699 to 0.00268699
Heightened Def Con from 0.00268699 to 0.00268699
Heightened Def Con from 0.00268813 to 0.00268814
Heightened Def Con from 0.00268814 to 0.00268814
Heightened Def Con from 0.00268815 to 0.00268816
Heightened Def Con from 0.00269169 to 0.00269169
Heightened Def Con from 0.00269169 to 0.00269169
Heightened Def Con from 0.00269329 to 0.0026933
Heightened Def Con from 0.0026933 to 0.0026933
Heightened Def Con from 0.00269331 to 0.00269331
Heightened Def Con from 0.00269636 to 0.00269636
Heightened Def Con from 0.00269636 to 0.00269637
Heightened Def Con from 0.0026985 to 0.0026985
Heightened Def Con from 0.00270101 to 0.00270101
Heightened Def Con from 0.00270371 to 0.00270371
Heightened Def Con from 0.00270371 to 0.00270371
Heightened Def Con from 0.00270567 to 0.00270567
Heightened Def Con from 0.0027089 to 0.0027089
Heightened Def Con from 0.0027089 to 0.0027089
Heightened Def Con from 0.00271034 to 0.00271034
Heightened Def Con from 0.00271035 to 0.00271035
Heightened Def Con from 0.00271036 to 0.00271037
Heightened Def Con from 0.00271404 to 0.00271404
Heightened Def Con from 0.00271508 to 0.00271508
Heightened Def Con from 0.00271509 to 0.0027151
Heightened Def Con from 0.00271911 to 0.00271911
Heightened Def Con from 0.00271911 to 0.00271911
Heightened Def Con from 0.00271987 to 0.00271987
Heightened Def Con from 0.00271989 to 0.00271989
Heightened Def Con from 0.0027241 to 0.0027241
Heightened Def Con from 0.00272475 to 0.00272475
Heightened Def Con from 0.00272476 to 0.00272477
Heightened Def Con from 0.00272901 to 0.00272901
Heightened Def Con from 0.00272973 to 0.00272973
Heightened Def Con from 0.00272974 to 0.00272974
Heightened Def Con from 0.00273384 to 0.00273384
Heightened Def Con from 0.00273384 to 0.00273384
Heightened Def Con from 0.00273479 to 0.00273479
Heightened Def Con from 0.0027348 to 0.00273481
Heightened Def Con from 0.00273861 to 0.00273861
Heightened Def Con from 0.00273994 to 0.00273994
Heightened Def Con from 0.00273995 to 0.00273996
Heightened Def Con from 0.00274333 to 0.00274333
Heightened Def Con from 0.00274516 to 0.00274516
Heightened Def Con from 0.00274516 to 0.00274516
Heightened Def Con from 0.00274802 to 0.00274802
Heightened Def Con from 0.00275041 to 0.00275041
Heightened Def Con from 0.00275041 to 0.00275043
Heightened Def Con from 0.0027527 to 0.0027527
Heightened Def Con from 0.00275565 to 0.00275565
Heightened Def Con from 0.00275739 to 0.0027574
Heightened Def Con from 0.0027574 to 0.0027574
Heightened Def Con from 0.00276086 to 0.00276087
Heightened Def Con from 0.00276087 to 0.00276087
Heightened Def Con from 0.00276212 to 0.00276212
Heightened Def Con from 0.00276212 to 0.00276212
Heightened Def Con from 0.00276213 to 0.00276214
Heightened Def Con from 0.00276601 to 0.00276601
Heightened Def Con from 0.00276689 to 0.0027669
Heightened Def Con from 0.0027669 to 0.0027669
Heightened Def Con from 0.00276691 to 0.00276692
Heightened Def Con from 0.00277107 to 0.00277107
Heightened Def Con from 0.00277173 to 0.00277174
Heightened Def Con from 0.00277174 to 0.00277174
Heightened Def Con from 0.00277175 to 0.00277175
Heightened Def Con from 0.00277603 to 0.00277603
Heightened Def Con from 0.00277603 to 0.00277603
Heightened Def Con from 0.00277666 to 0.00277666
Heightened Def Con from 0.00277667 to 0.00277667
Heightened Def Con from 0.00278089 to 0.0027809
Heightened Def Con from 0.0027809 to 0.0027809
Heightened Def Con from 0.00278165 to 0.00278165
Heightened Def Con from 0.00278166 to 0.00278166
Heightened Def Con from 0.00278167 to 0.00278167
Heightened Def Con from 0.00278569 to 0.00278569
Heightened Def Con from 0.00278673 to 0.00278673
Heightened Def Con from 0.00278674 to 0.00278675
Heightened Def Con from 0.00279041 to 0.00279041
Heightened Def Con from 0.00279187 to 0.00279188
Heightened Def Con from 0.00279188 to 0.00279188
Heightened Def Con from 0.00279189 to 0.0027919
Heightened Def Con from 0.00279508 to 0.00279508
Heightened Def Con from 0.00279508 to 0.00279508
Heightened Def Con from 0.00279707 to 0.00279707
Heightened Def Con from 0.00279974 to 0.00279974
Heightened Def Con from 0.00279974 to 0.00279974
Heightened Def Con from 0.00280228 to 0.00280228
Heightened Def Con from 0.00280438 to 0.00280438
Heightened Def Con from 0.00280748 to 0.00280748
Heightened Def Con from 0.00280748 to 0.00280748
Heightened Def Con from 0.00280905 to 0.00280906
Heightened Def Con from 0.00280906 to 0.00280906
Heightened Def Con from 0.00281264 to 0.00281264
Heightened Def Con from 0.00281377 to 0.00281377
Heightened Def Con from 0.00281378 to 0.00281379
Heightened Def Con from 0.00281773 to 0.00281773
Heightened Def Con from 0.00281855 to 0.00281855
Heightened Def Con from 0.00281856 to 0.00281856
Heightened Def Con from 0.00282274 to 0.00282274
Heightened Def Con from 0.00282341 to 0.00282341
Heightened Def Con from 0.00282342 to 0.00282343
Heightened Def Con from 0.00282767 to 0.00282767
Heightened Def Con from 0.00282835 to 0.00282835
Heightened Def Con from 0.00282836 to 0.00282837
Heightened Def Con from 0.00283252 to 0.00283252
Heightened Def Con from 0.00283252 to 0.00283252
Heightened Def Con from 0.00283339 to 0.00283339
Heightened Def Con from 0.0028334 to 0.00283341
Heightened Def Con from 0.00283731 to 0.00283733
Heightened Def Con from 0.00283852 to 0.00283852
Heightened Def Con from 0.00283853 to 0.00283854
Heightened Def Con from 0.00284204 to 0.00284204
Heightened Def Con from 0.00284372 to 0.00284372
Heightened Def Con from 0.00284373 to 0.00284373
Heightened Def Con from 0.00284674 to 0.00284674
Heightened Def Con from 0.00284897 to 0.00284897
Heightened Def Con from 0.00285142 to 0.00285142
Heightened Def Con from 0.00285142 to 0.00285142
Heightened Def Con from 0.00285422 to 0.00285422
Heightened Def Con from 0.00285611 to 0.00285611
Heightened Def Con from 0.00285944 to 0.00285944
Heightened Def Con from 0.00285945 to 0.00285945
Heightened Def Con from 0.00286082 to 0.00286082
Heightened Def Con from 0.00286082 to 0.00286082
Heightened Def Con from 0.00286083 to 0.00286085
Heightened Def Con from 0.00286461 to 0.00286461
Heightened Def Con from 0.00286461 to 0.00286461
Heightened Def Con from 0.00286558 to 0.00286558
Heightened Def Con from 0.00286558 to 0.00286558
Heightened Def Con from 0.00286559 to 0.0028656
Heightened Def Con from 0.00286969 to 0.00286969
Heightened Def Con from 0.0028704 to 0.0028704
Heightened Def Con from 0.0028704 to 0.0028704
Heightened Def Con from 0.00287041 to 0.00287042
Heightened Def Con from 0.00287467 to 0.00287467
Heightened Def Con from 0.00287529 to 0.0028753
Heightened Def Con from 0.0028753 to 0.0028753
Heightened Def Con from 0.00287531 to 0.00287532
Heightened Def Con from 0.00287957 to 0.00287957
Heightened Def Con from 0.00287957 to 0.00287957
Heightened Def Con from 0.00288027 to 0.00288027
Heightened Def Con from 0.00288028 to 0.00288028
Heightened Def Con from 0.00288029 to 0.00288029
Heightened Def Con from 0.00288438 to 0.00288438
Heightened Def Con from 0.00288533 to 0.00288533
Heightened Def Con from 0.00288534 to 0.00288535
Heightened Def Con from 0.00288912 to 0.00288912
Heightened Def Con from 0.00289046 to 0.00289046
Heightened Def Con from 0.00289046 to 0.00289046
Heightened Def Con from 0.00289047 to 0.00289049
Heightened Def Con from 0.00289381 to 0.00289381
Heightened Def Con from 0.00289381 to 0.00289381
Heightened Def Con from 0.00289564 to 0.00289564
Heightened Def Con from 0.00289565 to 0.00289565
Heightened Def Con from 0.00289846 to 0.00289847
Heightened Def Con from 0.00290085 to 0.00290085
Heightened Def Con from 0.00290086 to 0.00290088
Heightened Def Con from 0.00290311 to 0.00290311
Heightened Def Con from 0.00290311 to 0.00290313
Heightened Def Con from 0.00290606 to 0.00290606
Heightened Def Con from 0.00290776 to 0.00290777
Heightened Def Con from 0.00290777 to 0.00290777
Heightened Def Con from 0.00291123 to 0.00291123
Heightened Def Con from 0.00291247 to 0.00291247
Heightened Def Con from 0.00291249 to 0.0029125
Heightened Def Con from 0.00291634 to 0.00291634
Heightened Def Con from 0.00291723 to 0.00291723
Heightened Def Con from 0.00291724 to 0.00291725
Heightened Def Con from 0.00292137 to 0.00292137
Heightened Def Con from 0.00292206 to 0.00292206
Heightened Def Con from 0.00292207 to 0.00292208
Heightened Def Con from 0.00292633 to 0.00292633
Heightened Def Con from 0.00292698 to 0.00292698
Heightened Def Con from 0.00292699 to 0.002927
Heightened Def Con from 0.0029312 to 0.0029312
Heightened Def Con from 0.002932 to 0.002932
Heightened Def Con from 0.00293201 to 0.00293202
Heightened Def Con from 0.002936 to 0.002936
Heightened Def Con from 0.00293711 to 0.00293711
Heightened Def Con from 0.00293712 to 0.00293713
Heightened Def Con from 0.00294075 to 0.00294075
Heightened Def Con from 0.00294228 to 0.00294229
Heightened Def Con from 0.00294229 to 0.00294229
Heightened Def Con from 0.0029423 to 0.00294231
Heightened Def Con from 0.00294545 to 0.00294545
Heightened Def Con from 0.00294545 to 0.00294545
Heightened Def Con from 0.00294753 to 0.00294753
Heightened Def Con from 0.00295013 to 0.00295014
Heightened Def Con from 0.00295278 to 0.00295278
Heightened Def Con from 0.00295482 to 0.00295482
Heightened Def Con from 0.00295801 to 0.00295801
Heightened Def Con from 0.00295801 to 0.00295802
Heightened Def Con from 0.00295802 to 0.00295802
Heightened Def Con from 0.00295952 to 0.00295952
Heightened Def Con from 0.00295953 to 0.00295953
Heightened Def Con from 0.00295954 to 0.00295954
Heightened Def Con from 0.0029632 to 0.0029632
Heightened Def Con from 0.00296426 to 0.00296427
Heightened Def Con from 0.00296427 to 0.00296427
Heightened Def Con from 0.00296428 to 0.00296429
Heightened Def Con from 0.00296831 to 0.00296831
Heightened Def Con from 0.00296907 to 0.00296907
Heightened Def Con from 0.00296907 to 0.00296907
Heightened Def Con from 0.00296908 to 0.00296909
Heightened Def Con from 0.00297332 to 0.00297332
Heightened Def Con from 0.00297394 to 0.00297395
Heightened Def Con from 0.00297395 to 0.00297395
Heightened Def Con from 0.00297396 to 0.00297397
Heightened Def Con from 0.00297824 to 0.00297824
Heightened Def Con from 0.0029789 to 0.0029789
Heightened Def Con from 0.0029789 to 0.0029789
Heightened Def Con from 0.00297891 to 0.00297892
Heightened Def Con from 0.00298307 to 0.00298307
Heightened Def Con from 0.00298394 to 0.00298394
Heightened Def Con from 0.00298395 to 0.00298396
Heightened Def Con from 0.00298782 to 0.00298782
Heightened Def Con from 0.00298904 to 0.00298905
Heightened Def Con from 0.00298905 to 0.00298905
Heightened Def Con from 0.00298906 to 0.00298907
Heightened Def Con from 0.00299252 to 0.00299252
Heightened Def Con from 0.00299252 to 0.00299252
Heightened Def Con from 0.00299422 to 0.00299422
Heightened Def Con from 0.00299422 to 0.00299422
Heightened Def Con from 0.00299718 to 0.00299719
Heightened Def Con from 0.00299942 to 0.00299942
Heightened Def Con from 0.00299943 to 0.00299945
N-Period=1
Fourier components of V(vo)
DC component:-0.173969

Harmonic	Frequency	 Fourier 	Normalized	 Phase  	Normalized
 Number 	  [Hz]   	Component	 Component	[degree]	Phase [deg]
    1   	1.000e+04	2.187e+01	1.000e+00	  -15.31°	    0.00°
    2   	2.000e+04	2.134e-02	9.759e-04	  116.92°	  132.23°
    3   	3.000e+04	5.722e-02	2.617e-03	  101.14°	  116.45°
    4   	4.000e+04	8.333e-03	3.810e-04	   71.33°	   86.64°
    5   	5.000e+04	2.613e-02	1.195e-03	   19.47°	   34.78°
    6   	6.000e+04	1.696e-02	7.756e-04	   55.76°	   71.07°
    7   	7.000e+04	2.447e-02	1.119e-03	   21.78°	   37.09°
    8   	8.000e+04	2.736e-02	1.251e-03	   27.20°	   42.51°
    9   	9.000e+04	3.147e-02	1.439e-03	   26.98°	   42.29°
Total Harmonic Distortion: 0.385496%(8.044334%)



Date: Mon Mar 02 20:42:46 2020
Total elapsed time: 845.107 seconds.

tnom = 27
temp = 27
method = modified trap
totiter = 7049678
traniter = 7049678
tranpoints = 2195106
accept = 1633341
rejected = 563504
matrix size = 370
fillins = 565
solver = Alternate
Thread vector: 58.7/44.1[5] 21.6/10.8[5] 15.1/4.5[5] 4.3/3.2[3]  2592/500
Matrix Compiler1: 64.40 KB object code size  21.9/13.9/[5.0]
Matrix Compiler2: 42.79 KB object code size  9.6/11.6/[3.6]

