Circuit: * C:\Users\Ema\Desktop\DCE\DISTORSION\Distorsion_20k.asc

Questionable use of curly braces in "b§e_abmgate yint 0 v={if(v(a)>{{vthresh}},{{vss}},{{vdd}})}"
    Error: undefined symbol in: "if([v](a)>((vthresh)),((vss)),((vdd)))"
Questionable use of curly braces in "b§e_abmgate yint 0 v={if(v(a)>{{vthresh}}&v(b)>{{vthresh}},{{vdd}},{{vss}})}"
    Error: undefined symbol in: "if([v](a)>((vthresh))&v(b)>((vthresh)),((vdd)),((vss)))"
Questionable use of curly braces in "b§e_abmgate yint 0 v={if(v(a)>{{vthresh}}&v(b)>{{vthresh}},{{vdd}},{{vss}})}"
    Error: undefined symbol in: "if([v](a)>((vthresh))&v(b)>((vthresh)),((vdd)),((vss)))"
Questionable use of curly braces in "b§e_abmgate yint 0 v={if(v(a)>{{vthresh}},{{vss}},{{vdd}})}"
    Error: undefined symbol in: "if([v](a)>((vthresh)),((vss)),((vdd)))"
Questionable use of curly braces in "b§e_abmgate yint 0 v={if(v(a)>{{vthresh}}&v(b)>{{vthresh}},{{vdd}},{{vss}})}"
    Error: undefined symbol in: "if([v](a)>((vthresh))&v(b)>((vthresh)),((vdd)),((vss)))"
Questionable use of curly braces in "b§e_abmgate yint 0 v={if(v(a)>{{vthresh}},{{vss}},{{vdd}})}"
    Error: undefined symbol in: "if([v](a)>((vthresh)),((vss)),((vdd)))"
WARNING: Less than two connections to node NC_03.  This node is used by V:U4:_V11.
WARNING: Less than two connections to node NC_02.  This node is used by V:U4:_V12.
WARNING: Less than two connections to node NC_01.  This node is used by V:U4:_V13.
WARNING: Less than two connections to node NC_04.  This node is used by V:U4:_V14.
WARNING: Less than two connections to node -15V.  This node is used by V6.
Instance "m:u4:_m12:1": Length shorter than recommended for a level 1 MOSFET.
Instance "m:u4:_m14:1": Length shorter than recommended for a level 1 MOSFET.
Instance "m:u4:_m15:1": Length shorter than recommended for a level 1 MOSFET.
Instance "m:u4:_m13:1": Length shorter than recommended for a level 1 MOSFET.
Instance "m:m2:2": Length shorter than recommended for a level 3 MOSFET.
Instance "m:m2:1": Length shorter than recommended for a level 3 MOSFET.
Instance "m:m1:2": Length shorter than recommended for a level 3 MOSFET.
Instance "m:m1:1": Length shorter than recommended for a level 3 MOSFET.
Per .tran options, skipping operating point for transient analysis.
Ignoring empty pin current: Ix(u4:vcci_1)
Changing Tseed to 1.46484e-010
Changing Tseed to 1.46484e-012
Changing Tseed to 1.46484e-009
Changing Tseed to 1.46484e-013
Changing Tseed to 1.46484e-008
Changing Tseed to 1.46484e-014
Changing Tseed to 1.46484e-007
Changing Tseed to 1.46484e-015
Changing Tseed to 1.46484e-006
Changing Tseed to 1.46484e-016
Changing Tseed to 1.46484e-005
Changing Tseed to 1.46484e-017
Heightened Def Con from 0 Changing Tseed to 1e-009
Changing Tseed to 1e-011
Changing Tseed to 1e-008
Changing Tseed to 1e-012
Changing Tseed to 1e-007
Changing Tseed to 1e-013
Changing Tseed to 1e-006
Changing Tseed to 1e-014
Changing Tseed to 1e-005
Changing Tseed to 1e-015
Changing Tseed to 0.0001
Changing Tseed to 1e-016
+Changing Tseed to 1e-009
Changing Tseed to 1e-011
Changing Tseed to 1e-008
Changing Tseed to 1e-012
Changing Tseed to 1e-007
Changing Tseed to 1e-013
Changing Tseed to 1e-006
Changing Tseed to 1e-014
Changing Tseed to 1e-005
Changing Tseed to 1e-015
Changing Tseed to 0.0001
Changing Tseed to 1e-016
+Changing Tseed to 1e-009
Changing Tseed to 1e-011
Changing Tseed to 1e-008
Changing Tseed to 1e-012
Changing Tseed to 1e-007
Changing Tseed to 1e-013
Changing Tseed to 1e-006
Changing Tseed to 1e-014
Changing Tseed to 1e-005
Changing Tseed to 1e-015
Changing Tseed to 0.0001
Changing Tseed to 1e-016
+Changing Tseed to 1e-009
Changing Tseed to 1e-011
Changing Tseed to 1e-008
Changing Tseed to 1e-012
Changing Tseed to 1e-007
Changing Tseed to 1e-013
Changing Tseed to 1e-006
Changing Tseed to 1e-014
Changing Tseed to 1e-005
Changing Tseed to 1e-015
Changing Tseed to 0.0001
Changing Tseed to 1e-016
+Changing Tseed to 1e-009
Changing Tseed to 1e-011
Changing Tseed to 1e-008
Changing Tseed to 1e-012
Changing Tseed to 1e-007
Changing Tseed to 1e-013
Changing Tseed to 1e-006
Changing Tseed to 1e-014
Changing Tseed to 1e-005
Changing Tseed to 1e-015
Changing Tseed to 0.0001
Changing Tseed to 1e-016
+Changing Tseed to 1e-009
Changing Tseed to 1e-011
Changing Tseed to 1e-008
Changing Tseed to 1e-012
Changing Tseed to 1e-007
Changing Tseed to 1e-013
Changing Tseed to 1e-006
Changing Tseed to 1e-014
Changing Tseed to 1e-005
Changing Tseed to 1e-015
Changing Tseed to 0.0001
Changing Tseed to 1e-016
+Changing Tseed to 1e-009
Changing Tseed to 1e-011
Changing Tseed to 1e-008
Changing Tseed to 1e-012
Changing Tseed to 1e-007
Changing Tseed to 1e-013
Changing Tseed to 1e-006
Changing Tseed to 1e-014
Changing Tseed to 1e-005
Changing Tseed to 1e-015
Changing Tseed to 0.0001
Changing Tseed to 1e-016
+Changing Tseed to 1e-009
Changing Tseed to 1e-011
Changing Tseed to 1e-008
Changing Tseed to 1e-012
Changing Tseed to 1e-007
Changing Tseed to 1e-013
Changing Tseed to 1e-006
Changing Tseed to 1e-014
Changing Tseed to 1e-005
Changing Tseed to 1e-015
Changing Tseed to 0.0001
Changing Tseed to 1e-016
+Changing Tseed to 1e-009
Changing Tseed to 1e-011
Changing Tseed to 1e-008
Changing Tseed to 1e-012
Changing Tseed to 1e-007
Changing Tseed to 1e-013
Changing Tseed to 1e-006
Changing Tseed to 1e-014
Changing Tseed to 1e-005
Changing Tseed to 1e-015
Changing Tseed to 0.0001
Changing Tseed to 1e-016
+Changing Tseed to 1e-009
Changing Tseed to 1e-011
Changing Tseed to 1e-008
Changing Tseed to 1e-012
Changing Tseed to 1e-007
Changing Tseed to 1e-013
Changing Tseed to 1e-006
Changing Tseed to 1e-014
Changing Tseed to 1e-005
Changing Tseed to 1e-015
Changing Tseed to 0.0001
Changing Tseed to 1e-016
+Changing Tseed to 1e-009
Changing Tseed to 1e-011
Changing Tseed to 1e-008
Changing Tseed to 1e-012
Changing Tseed to 1e-007
Changing Tseed to 1e-013
Changing Tseed to 1e-006
Changing Tseed to 1e-014
Changing Tseed to 1e-005
Changing Tseed to 1e-015
Changing Tseed to 0.0001
Changing Tseed to 1e-016
+Changing Tseed to 1e-009
Changing Tseed to 1e-011
Changing Tseed to 1e-008
Changing Tseed to 1e-012
Changing Tseed to 1e-007
Changing Tseed to 1e-013
Changing Tseed to 1e-006
Changing Tseed to 1e-014
Changing Tseed to 1e-005
Changing Tseed to 1e-015
Changing Tseed to 0.0001
Changing Tseed to 1e-016
+Changing Tseed to 1e-009
Changing Tseed to 1e-011
Changing Tseed to 1e-008
Changing Tseed to 1e-012
Changing Tseed to 1e-007
Changing Tseed to 1e-013
Changing Tseed to 1e-006
Changing Tseed to 1e-014
Changing Tseed to 1e-005
Changing Tseed to 1e-015
Changing Tseed to 0.0001
Changing Tseed to 1e-016
+Changing Tseed to 1e-009
Changing Tseed to 1e-011
Changing Tseed to 1e-008
Changing Tseed to 1e-012
Changing Tseed to 1e-007
Changing Tseed to 1e-013
Changing Tseed to 1e-006
Changing Tseed to 1e-014
Changing Tseed to 1e-005
Changing Tseed to 1e-015
Changing Tseed to 0.0001
Changing Tseed to 1e-016
+Changing Tseed to 1e-009
Changing Tseed to 1e-011
Changing Tseed to 1e-008
Changing Tseed to 1e-012
Changing Tseed to 1e-007
Changing Tseed to 1e-013
Changing Tseed to 1e-006
Changing Tseed to 1e-014
Changing Tseed to 1e-005
Changing Tseed to 1e-015
Changing Tseed to 0.0001
Changing Tseed to 1e-016
+Changing Tseed to 1e-009
Changing Tseed to 1e-011
Changing Tseed to 1e-008
Changing Tseed to 1e-012
Changing Tseed to 1e-007
Changing Tseed to 1e-013
Changing Tseed to 1e-006
Changing Tseed to 1e-014
Changing Tseed to 1e-005
Changing Tseed to 1e-015
Changing Tseed to 0.0001
Changing Tseed to 1e-016
+Changing Tseed to 1e-009
Changing Tseed to 1e-011
Changing Tseed to 1e-008
Changing Tseed to 1e-012
Changing Tseed to 1e-007
Changing Tseed to 1e-013
Changing Tseed to 1e-006
Changing Tseed to 1e-014
Changing Tseed to 1e-005
Changing Tseed to 1e-015
Changing Tseed to 0.0001
Changing Tseed to 1e-016
+Changing Tseed to 1e-009
Changing Tseed to 1e-011
Changing Tseed to 1e-008
Changing Tseed to 1e-012
Changing Tseed to 1e-007
Changing Tseed to 1e-013
Changing Tseed to 1e-006
Changing Tseed to 1e-014
Changing Tseed to 1e-005
Changing Tseed to 1e-015
Changing Tseed to 0.0001
Changing Tseed to 1e-016
+Changing Tseed to 1e-009
Changing Tseed to 1e-011
Changing Tseed to 1e-008
Changing Tseed to 1e-012
Changing Tseed to 1e-007
Changing Tseed to 1e-013
Changing Tseed to 1e-006
Changing Tseed to 1e-014
Changing Tseed to 1e-005
Changing Tseed to 1e-015
Changing Tseed to 0.0001
Changing Tseed to 1e-016
+Changing Tseed to 1e-009
Changing Tseed to 1e-011
Changing Tseed to 1e-008
Changing Tseed to 1e-012
Changing Tseed to 1e-007
Changing Tseed to 1e-013
Changing Tseed to 1e-006
Changing Tseed to 1e-014
Changing Tseed to 1e-005
Changing Tseed to 1e-015
Changing Tseed to 0.0001
Changing Tseed to 1e-016
+Changing Tseed to 1e-009
Changing Tseed to 1e-011
Changing Tseed to 1e-008
Changing Tseed to 1e-012
Changing Tseed to 1e-007
Changing Tseed to 1e-013
Changing Tseed to 1e-006
Changing Tseed to 1e-014
Changing Tseed to 1e-005
Changing Tseed to 1e-015
Changing Tseed to 0.0001
Changing Tseed to 1e-016
+Changing Tseed to 1e-009
Changing Tseed to 1e-011
Changing Tseed to 1e-008
Changing Tseed to 1e-012
Changing Tseed to 1e-007
Changing Tseed to 1e-013
Changing Tseed to 1e-006
Changing Tseed to 1e-014
Changing Tseed to 1e-005
Changing Tseed to 1e-015
Changing Tseed to 0.0001
Changing Tseed to 1e-016
+Changing Tseed to 1e-009
Changing Tseed to 1e-011
Changing Tseed to 1e-008
Changing Tseed to 1e-012
Changing Tseed to 1e-007
Changing Tseed to 1e-013
Changing Tseed to 1e-006
Changing Tseed to 1e-014
Changing Tseed to 1e-005
Changing Tseed to 1e-015
Changing Tseed to 0.0001
Changing Tseed to 1e-016
+Changing Tseed to 1e-009
Changing Tseed to 1e-011
Changing Tseed to 1e-008
Changing Tseed to 1e-012
Changing Tseed to 1e-007
Changing Tseed to 1e-013
Changing Tseed to 1e-006
Changing Tseed to 1e-014
Changing Tseed to 1e-005
Changing Tseed to 1e-015
Changing Tseed to 0.0001
Changing Tseed to 1e-016
+Changing Tseed to 1e-009
Changing Tseed to 1e-011
Changing Tseed to 1e-008
Changing Tseed to 1e-012
Changing Tseed to 1e-007
Changing Tseed to 1e-013
Changing Tseed to 1e-006
Changing Tseed to 1e-014
Changing Tseed to 1e-005
Changing Tseed to 1e-015
Changing Tseed to 0.0001
Changing Tseed to 1e-016
+Changing Tseed to 1e-009
Changing Tseed to 1e-011
Changing Tseed to 1e-008
Changing Tseed to 1e-012
Changing Tseed to 1e-007
Changing Tseed to 1e-013
Changing Tseed to 1e-006
Changing Tseed to 1e-014
Changing Tseed to 1e-005
Changing Tseed to 1e-015
Changing Tseed to 0.0001
Changing Tseed to 1e-016
+Changing Tseed to 1e-009
Changing Tseed to 1e-011
Changing Tseed to 1e-008
Changing Tseed to 1e-012
Changing Tseed to 1e-007
Changing Tseed to 1e-013
Changing Tseed to 1e-006
Changing Tseed to 1e-014
Changing Tseed to 1e-005
Changing Tseed to 1e-015
Changing Tseed to 0.0001
Changing Tseed to 1e-016
+Changing Tseed to 1e-009
Changing Tseed to 1e-011
Changing Tseed to 1e-008
Changing Tseed to 1e-012
Changing Tseed to 1e-007
Changing Tseed to 1e-013
Changing Tseed to 1e-006
Changing Tseed to 1e-014
Changing Tseed to 1e-005
Changing Tseed to 1e-015
Changing Tseed to 0.0001
Changing Tseed to 1e-016
+Changing Tseed to 1e-009
Changing Tseed to 1e-011
Changing Tseed to 1e-008
Changing Tseed to 1e-012
Changing Tseed to 1e-007
Changing Tseed to 1e-013
Changing Tseed to 1e-006
Changing Tseed to 1e-014
Changing Tseed to 1e-005
Changing Tseed to 1e-015
Changing Tseed to 0.0001
Changing Tseed to 1e-016
+Changing Tseed to 1e-009
Changing Tseed to 1e-011
Changing Tseed to 1e-008
Changing Tseed to 1e-012
Changing Tseed to 1e-007
Changing Tseed to 1e-013
Changing Tseed to 1e-006
Changing Tseed to 1e-014
Changing Tseed to 1e-005
Changing Tseed to 1e-015
Changing Tseed to 0.0001
Changing Tseed to 1e-016
+Changing Tseed to 1e-009
Changing Tseed to 1e-011
Changing Tseed to 1e-008
Changing Tseed to 1e-012
Changing Tseed to 1e-007
Changing Tseed to 1e-013
Changing Tseed to 1e-006
Changing Tseed to 1e-014
Changing Tseed to 1e-005
Changing Tseed to 1e-015
Changing Tseed to 0.0001
Changing Tseed to 1e-016
+Changing Tseed to 1e-009
Changing Tseed to 1e-011
Changing Tseed to 1e-008
Changing Tseed to 1e-012
Changing Tseed to 1e-007
Changing Tseed to 1e-013
Changing Tseed to 1e-006
Changing Tseed to 1e-014
Changing Tseed to 1e-005
Changing Tseed to 1e-015
Changing Tseed to 0.0001
Changing Tseed to 1e-016
+Changing Tseed to 1e-009
Changing Tseed to 1e-011
Changing Tseed to 1e-008
Changing Tseed to 1e-012
Changing Tseed to 1e-007
Changing Tseed to 1e-013
Changing Tseed to 1e-006
Changing Tseed to 1e-014
Changing Tseed to 1e-005
Changing Tseed to 1e-015
Changing Tseed to 0.0001
Changing Tseed to 1e-016
+Changing Tseed to 1e-009
Changing Tseed to 1e-011
Changing Tseed to 1e-008
Changing Tseed to 1e-012
Changing Tseed to 1e-007
Changing Tseed to 1e-013
Changing Tseed to 1e-006
Changing Tseed to 1e-014
Changing Tseed to 1e-005
Changing Tseed to 1e-015
Changing Tseed to 0.0001
Changing Tseed to 1e-016
+Changing Tseed to 1e-009
Changing Tseed to 1e-011
Changing Tseed to 1e-008
Changing Tseed to 1e-012
Changing Tseed to 1e-007
Changing Tseed to 1e-013
Changing Tseed to 1e-006
Changing Tseed to 1e-014
Changing Tseed to 1e-005
Changing Tseed to 1e-015
Changing Tseed to 0.0001
Changing Tseed to 1e-016
+Changing Tseed to 1e-009
Changing Tseed to 1e-011
to 1.125e-011
Heightened Def Con from 1.125e-011 +++++++++++++++++++++++++++to 2.26125e-009
Heightened Def Con from 2.26125e-009 +++++++++++++++++++to 2.26394e-009
Heightened Def Con from 2.26394e-009 +++++++++++++++to 2.26398e-009
Heightened Def Con from 4.9982e-005 to 4.9983e-005
Heightened Def Con from 5.53566e-005 to 5.53567e-005
Heightened Def Con from 6.05932e-005 to 6.05934e-005
Heightened Def Con from 6.54966e-005 to 6.54968e-005
Heightened Def Con from 6.63619e-005 to 6.63719e-005
Heightened Def Con from 7.013e-005 to 7.01301e-005
Heightened Def Con from 7.17431e-005 to 7.17501e-005
Heightened Def Con from 7.46163e-005 to 7.46164e-005
Heightened Def Con from 7.90868e-005 to 7.9087e-005
Heightened Def Con from 7.90967e-005 to 7.91008e-005
Heightened Def Con from 8.36773e-005 to 8.36774e-005
Heightened Def Con from 8.36871e-005 to 8.36961e-005
Heightened Def Con from 8.7907e-005 to 8.7923e-005
Heightened Def Con from 8.85128e-005 to 8.85129e-005
Heightened Def Con from 8.85226e-005 to 8.85316e-005
Heightened Def Con from 9.26616e-005 to 9.26716e-005
Heightened Def Con from 9.36762e-005 to 9.36764e-005
Heightened Def Con from 9.3686e-005 to 9.3695e-005
Heightened Def Con from 9.71484e-005 to 9.71644e-005
Heightened Def Con from 9.91201e-005 to 9.91203e-005
Heightened Def Con from 0.000101553 to 0.000101563
Heightened Def Con from 0.000104616 to 0.000104616
Heightened Def Con from 0.000109894 to 0.000109894
Heightened Def Con from 0.000114843 to 0.000114843
Heightened Def Con from 0.000119506 to 0.000119506
Heightened Def Con from 0.000124006 to 0.000124006
Heightened Def Con from 0.00012847 to 0.00012847
Heightened Def Con from 0.000133036 to 0.000133036
Heightened Def Con from 0.000133046 to 0.000133055
Heightened Def Con from 0.000137223 to 0.000137224
Heightened Def Con from 0.000137226 to 0.000137226
Heightened Def Con from 0.000137825 to 0.00013783
Heightened Def Con from 0.000137832 to 0.000137832
Heightened Def Con from 0.000137842 to 0.000137849
Heightened Def Con from 0.000142015 to 0.000142017
Heightened Def Con from 0.000142018 to 0.000142018
Heightened Def Con from 0.000142943 to 0.000142948
Heightened Def Con from 0.000142949 to 0.000142949
Heightened Def Con from 0.00014296 to 0.000142967
Heightened Def Con from 0.000146538 to 0.000146539
Heightened Def Con from 0.000146541 to 0.000146541
Heightened Def Con from 0.000148358 to 0.000148364
Heightened Def Con from 0.000148365 to 0.000148365
Heightened Def Con from 0.000150948 to 0.000150948
Heightened Def Con from 0.000150949 to 0.00015095
Heightened Def Con from 0.00015387 to 0.00015387
Heightened Def Con from 0.000155376 to 0.00015538
Heightened Def Con from 0.000155381 to 0.000155382
Heightened Def Con from 0.000159187 to 0.000159189
Heightened Def Con from 0.00015919 to 0.00015919
Heightened Def Con from 0.000159987 to 0.000159987
Heightened Def Con from 0.000159998 to 0.000160004
Heightened Def Con from 0.00016418 to 0.000164182
Heightened Def Con from 0.000164183 to 0.000164184
Heightened Def Con from 0.000164911 to 0.000164911
Heightened Def Con from 0.000164922 to 0.000164928
Heightened Def Con from 0.000168876 to 0.000168878
Heightened Def Con from 0.00016888 to 0.00016888
Heightened Def Con from 0.000170212 to 0.000170212
Heightened Def Con from 0.000170224 to 0.000170234
Heightened Def Con from 0.000173393 to 0.000173393
Heightened Def Con from 0.000175797 to 0.000175797
Heightened Def Con from 0.000177854 to 0.000177854
Heightened Def Con from 0.000177858 to 0.000177876
Heightened Def Con from 0.000181334 to 0.000181335
Heightened Def Con from 0.000181336 to 0.000181336
Heightened Def Con from 0.000182394 to 0.000182397
Heightened Def Con from 0.000182399 to 0.000182399
Heightened Def Con from 0.000182409 to 0.000182418
Heightened Def Con from 0.000186547 to 0.000186547
Heightened Def Con from 0.000187152 to 0.000187155
Heightened Def Con from 0.000187157 to 0.000187157
Heightened Def Con from 0.000187167 to 0.000187174
Heightened Def Con from 0.000191377 to 0.000191377
Heightened Def Con from 0.00019222 to 0.000192225
Heightened Def Con from 0.000192227 to 0.000192227
Heightened Def Con from 0.000192237 to 0.000192244
Heightened Def Con from 0.000195931 to 0.000195932
Heightened Def Con from 0.000197606 to 0.000197609
Heightened Def Con from 0.00019761 to 0.00019761
Heightened Def Con from 0.000197621 to 0.000197632
Heightened Def Con from 0.000200341 to 0.000200342
Heightened Def Con from 0.000200343 to 0.000200344
Heightened Def Con from 0.000203121 to 0.000203121
Heightened Def Con from 0.000204762 to 0.000204766
Heightened Def Con from 0.000204768 to 0.000204768
Heightened Def Con from 0.000208476 to 0.000208478
Heightened Def Con from 0.000208479 to 0.000208479
Heightened Def Con from 0.00020934 to 0.00020934
Heightened Def Con from 0.000209352 to 0.000209358
Heightened Def Con from 0.000213518 to 0.000213518
Heightened Def Con from 0.000214211 to 0.000214211
Heightened Def Con from 0.000214222 to 0.000214228
Heightened Def Con from 0.00021825 to 0.000218251
Heightened Def Con from 0.000219462 to 0.000219462
Heightened Def Con from 0.000219473 to 0.000219483
Heightened Def Con from 0.000222778 to 0.00022278
Heightened Def Con from 0.000222781 to 0.000222781
Heightened Def Con from 0.000225024 to 0.000225024
Heightened Def Con from 0.000227241 to 0.000227241
Heightened Def Con from 0.000227242 to 0.000227263
Heightened Def Con from 0.000230585 to 0.000230586
Heightened Def Con from 0.00023176 to 0.000231766
Heightened Def Con from 0.000231766 to 0.000231767
Heightened Def Con from 0.000231777 to 0.000231788
Heightened Def Con from 0.000235855 to 0.000235855
Heightened Def Con from 0.000236487 to 0.000236487
Heightened Def Con from 0.000236498 to 0.000236505
Heightened Def Con from 0.000240734 to 0.000240734
Heightened Def Con from 0.000241512 to 0.000241512
Heightened Def Con from 0.000241523 to 0.00024153
Heightened Def Con from 0.000245311 to 0.000245313
Heightened Def Con from 0.000245314 to 0.000245314
Heightened Def Con from 0.000246851 to 0.000246852
Heightened Def Con from 0.000246858 to 0.000246858
Heightened Def Con from 0.000246869 to 0.00024688
Heightened Def Con from 0.000249742 to 0.000249742
Heightened Def Con from 0.000252369 to 0.000252369
Heightened Def Con from 0.000252369 to 0.000252369
Heightened Def Con from 0.000254156 to 0.000254156
Heightened Def Con from 0.000257762 to 0.000257762
Heightened Def Con from 0.000258699 to 0.000258699
Heightened Def Con from 0.000258711 to 0.000258717
Heightened Def Con from 0.000262846 to 0.000262846
Heightened Def Con from 0.000263522 to 0.000263522
Heightened Def Con from 0.000263534 to 0.00026354
Heightened Def Con from 0.000267616 to 0.000267616
Heightened Def Con from 0.000268722 to 0.000268722
Heightened Def Con from 0.000268734 to 0.00026874
Heightened Def Con from 0.000272166 to 0.000272167
Heightened Def Con from 0.000274254 to 0.000274254
Heightened Def Con from 0.000276629 to 0.000276629
Heightened Def Con from 0.000276629 to 0.000276629
Heightened Def Con from 0.000279841 to 0.000279841
Heightened Def Con from 0.000281138 to 0.000281138
Heightened Def Con from 0.000281148 to 0.000281151
Heightened Def Con from 0.000285153 to 0.000285153
Heightened Def Con from 0.000285824 to 0.000285825
Heightened Def Con from 0.000285835 to 0.000285842
Heightened Def Con from 0.000290081 to 0.000290083
Heightened Def Con from 0.000290084 to 0.000290084
Heightened Def Con from 0.000290799 to 0.000290802
Heightened Def Con from 0.000290803 to 0.000290804
Heightened Def Con from 0.000290814 to 0.000290821
Heightened Def Con from 0.000294701 to 0.000294701
Heightened Def Con from 0.000296107 to 0.00029611
Heightened Def Con from 0.000296111 to 0.000296111
Heightened Def Con from 0.000296122 to 0.000296128
Heightened Def Con from 0.000299137 to 0.000299138
Heightened Def Con from 0.000299139 to 0.000299139
Heightened Def Con from 0.000301614 to 0.000301614
Heightened Def Con from 0.000303542 to 0.000303542
Heightened Def Con from 0.000307038 to 0.000307038
Heightened Def Con from 0.000308062 to 0.000308062
Heightened Def Con from 0.000308073 to 0.000308081
Heightened Def Con from 0.00031217 to 0.00031217
Heightened Def Con from 0.000312839 to 0.000312839
Heightened Def Con from 0.000312851 to 0.000312857
Heightened Def Con from 0.000316978 to 0.000316979
Heightened Def Con from 0.000317984 to 0.000317984
Heightened Def Con from 0.000317995 to 0.000318001
Heightened Def Con from 0.000321547 to 0.000321549
Heightened Def Con from 0.000321551 to 0.000321551
Heightened Def Con from 0.000323476 to 0.000323481
Heightened Def Con from 0.000323482 to 0.000323482
Heightened Def Con from 0.000326018 to 0.000326018
Heightened Def Con from 0.000329079 to 0.00032908
Heightened Def Con from 0.00032908 to 0.000329081
Heightened Def Con from 0.000330512 to 0.000330512
Heightened Def Con from 0.000330523 to 0.000330534
Heightened Def Con from 0.000334445 to 0.000334445
Heightened Def Con from 0.000335166 to 0.000335167
Heightened Def Con from 0.000335177 to 0.000335184
Heightened Def Con from 0.000339434 to 0.000339434
Heightened Def Con from 0.000340101 to 0.000340101
Heightened Def Con from 0.000340111 to 0.000340118
Heightened Def Con from 0.000344085 to 0.000344085
Heightened Def Con from 0.000345359 to 0.000345365
Heightened Def Con from 0.000345366 to 0.000345366
Heightened Def Con from 0.000345377 to 0.000345385
Heightened Def Con from 0.000348534 to 0.000348535
Heightened Def Con from 0.000348537 to 0.000348537
Heightened Def Con from 0.000350858 to 0.000350858
Heightened Def Con from 0.000352936 to 0.000352936
Heightened Def Con from 0.00035631 to 0.00035631
Heightened Def Con from 0.000357428 to 0.000357428
Heightened Def Con from 0.00035744 to 0.00035745
Heightened Def Con from 0.000361487 to 0.000361487
Heightened Def Con from 0.000362165 to 0.000362165
Heightened Def Con from 0.000362176 to 0.000362182
Heightened Def Con from 0.000366336 to 0.000366336
Heightened Def Con from 0.000367258 to 0.000367258
Heightened Def Con from 0.000367269 to 0.000367275
Heightened Def Con from 0.00037093 to 0.000370932
Heightened Def Con from 0.000370933 to 0.000370933
Heightened Def Con from 0.000372712 to 0.000372716
Heightened Def Con from 0.000372717 to 0.000372717
Heightened Def Con from 0.000372729 to 0.000372739
Heightened Def Con from 0.000375404 to 0.000375405
Heightened Def Con from 0.000375407 to 0.000375407
Heightened Def Con from 0.000378318 to 0.000378318
Heightened Def Con from 0.000378318 to 0.000378318
Heightened Def Con from 0.000378319 to 0.000378319
Heightened Def Con from 0.000379881 to 0.000379887
Heightened Def Con from 0.000379888 to 0.000379888
Heightened Def Con from 0.000383734 to 0.000383734
Heightened Def Con from 0.000384507 to 0.000384512
Heightened Def Con from 0.000384514 to 0.000384514
Heightened Def Con from 0.000384524 to 0.000384531
Heightened Def Con from 0.000388765 to 0.000388766
Heightened Def Con from 0.000388768 to 0.000388768
Heightened Def Con from 0.000389401 to 0.000389404
Heightened Def Con from 0.000389405 to 0.000389405
Heightened Def Con from 0.000389416 to 0.000389423
Heightened Def Con from 0.000393458 to 0.00039346
Heightened Def Con from 0.000393461 to 0.000393461
Heightened Def Con from 0.00039462 to 0.000394626
Heightened Def Con from 0.000394627 to 0.000394627
Heightened Def Con from 0.000394637 to 0.000394646
Heightened Def Con from 0.000397928 to 0.000397928
Heightened Def Con from 0.0004001 to 0.0004001
Heightened Def Con from 0.000402327 to 0.000402327
Heightened Def Con from 0.000405571 to 0.000405573
Heightened Def Con from 0.000405574 to 0.000405574
Heightened Def Con from 0.000406802 to 0.000406802
Heightened Def Con from 0.000406814 to 0.000406824
Heightened Def Con from 0.000410793 to 0.000410795
Heightened Def Con from 0.000410797 to 0.000410797
Heightened Def Con from 0.000411495 to 0.000411495
Heightened Def Con from 0.000411506 to 0.000411512
Heightened Def Con from 0.000415683 to 0.000415685
Heightened Def Con from 0.000415687 to 0.000415688
Heightened Def Con from 0.000416531 to 0.000416531
Heightened Def Con from 0.000416542 to 0.000416548
Heightened Def Con from 0.00042031 to 0.000420312
Heightened Def Con from 0.000420313 to 0.000420313
Heightened Def Con from 0.000421945 to 0.000421949
Heightened Def Con from 0.00042195 to 0.00042195
Heightened Def Con from 0.000421961 to 0.00042197
Heightened Def Con from 0.000424792 to 0.000424794
Heightened Def Con from 0.000424795 to 0.000424795
Heightened Def Con from 0.000427551 to 0.000427551
Heightened Def Con from 0.000427551 to 0.000427573
Heightened Def Con from 0.000429269 to 0.000429269
Heightened Def Con from 0.000433006 to 0.000433007
Heightened Def Con from 0.000433009 to 0.000433009
Heightened Def Con from 0.000433866 to 0.000433866
Heightened Def Con from 0.000433876 to 0.000433885
Heightened Def Con from 0.000438099 to 0.000438099
Heightened Def Con from 0.00043871 to 0.000438713
Heightened Def Con from 0.000438714 to 0.000438714
Heightened Def Con from 0.000438725 to 0.000438732
Heightened Def Con from 0.000442827 to 0.000442827
Heightened Def Con from 0.000443885 to 0.000443891
Heightened Def Con from 0.000443892 to 0.000443892
Heightened Def Con from 0.000443902 to 0.000443911
Heightened Def Con from 0.000447322 to 0.000447323
Heightened Def Con from 0.000449342 to 0.000449343
Heightened Def Con from 0.000451724 to 0.000451724
Heightened Def Con from 0.000451725 to 0.000451746
Heightened Def Con from 0.000454834 to 0.000454834
Heightened Def Con from 0.000456176 to 0.00045618
Heightened Def Con from 0.000456181 to 0.000456181
Heightened Def Con from 0.000456192 to 0.000456201
Heightened Def Con from 0.000460101 to 0.000460101
Heightened Def Con from 0.000460835 to 0.000460835
Heightened Def Con from 0.000460847 to 0.000460853
Heightened Def Con from 0.000465034 to 0.000465035
Heightened Def Con from 0.000465831 to 0.000465837
Heightened Def Con from 0.00046969 to 0.00046969
Heightened Def Con from 0.000471191 to 0.000471191
Heightened Def Con from 0.000471202 to 0.000471212
Heightened Def Con from 0.000474181 to 0.000474183
Heightened Def Con from 0.000474184 to 0.000474185
Heightened Def Con from 0.000476789 to 0.000476789
Heightened Def Con from 0.000478651 to 0.000478651
Heightened Def Con from 0.000482281 to 0.000482283
Heightened Def Con from 0.000482283 to 0.000482283
Heightened Def Con from 0.000483217 to 0.000483223
Heightened Def Con from 0.000483224 to 0.000483224
Heightened Def Con from 0.000483235 to 0.000483244
Heightened Def Con from 0.000487424 to 0.000487424
Heightened Def Con from 0.000488027 to 0.00048803
Heightened Def Con from 0.000488031 to 0.000488031
Heightened Def Con from 0.000488042 to 0.000488049
Heightened Def Con from 0.000492199 to 0.000492199
Heightened Def Con from 0.000493162 to 0.000493163
Heightened Def Con from 0.000493173 to 0.00049318
Heightened Def Con from 0.000496717 to 0.000496718
Heightened Def Con from 0.000496719 to 0.000496719
Heightened Def Con from 0.000498587 to 0.000498587
Heightened Def Con from 0.00050112 to 0.00050112
Heightened Def Con from 0.000504088 to 0.00050409
Heightened Def Con from 0.000504091 to 0.000504091
Heightened Def Con from 0.000505559 to 0.000505559
Heightened Def Con from 0.00050557 to 0.00050558
Heightened Def Con from 0.000509397 to 0.000509398
Heightened Def Con from 0.000510178 to 0.000510178
Heightened Def Con from 0.00051019 to 0.000510196
Heightened Def Con from 0.000514378 to 0.000514378
Heightened Def Con from 0.000515114 to 0.000515114
Heightened Def Con from 0.000515125 to 0.000515131
Heightened Def Con from 0.000519062 to 0.000519064
Heightened Def Con from 0.000519065 to 0.000519065
Heightened Def Con from 0.000520431 to 0.000520431
Heightened Def Con from 0.000520443 to 0.000520453
Heightened Def Con from 0.000523569 to 0.000523571
Heightened Def Con from 0.000523573 to 0.000523573
Heightened Def Con from 0.000526015 to 0.000526015
Heightened Def Con from 0.000528035 to 0.000528035
Heightened Def Con from 0.000531543 to 0.000531543
Heightened Def Con from 0.000532579 to 0.000532585
Heightened Def Con from 0.000532586 to 0.000532586
Heightened Def Con from 0.000532596 to 0.000532605
Heightened Def Con from 0.000536739 to 0.00053674
Heightened Def Con from 0.000536742 to 0.000536742
Heightened Def Con from 0.000537347 to 0.000537352
Heightened Def Con from 0.000537354 to 0.000537354
Heightened Def Con from 0.000537365 to 0.000537372
Heightened Def Con from 0.000541562 to 0.000541562
Heightened Def Con from 0.00054244 to 0.00054244
Heightened Def Con from 0.00054245 to 0.000542457
Heightened Def Con from 0.000546106 to 0.000546107
Heightened Def Con from 0.000546109 to 0.000546109
Heightened Def Con from 0.000547825 to 0.000547831
Heightened Def Con from 0.000547832 to 0.000547832
Heightened Def Con from 0.000547842 to 0.000547844
Heightened Def Con from 0.000550517 to 0.000550517
Heightened Def Con from 0.00055334 to 0.000553341
Heightened Def Con from 0.000553342 to 0.000553342
Heightened Def Con from 0.000554939 to 0.000554939
Heightened Def Con from 0.000558685 to 0.000558687
Heightened Def Con from 0.000558688 to 0.000558688
Heightened Def Con from 0.000559526 to 0.000559526
Heightened Def Con from 0.000559538 to 0.000559544
Heightened Def Con from 0.000563714 to 0.000563714
Heightened Def Con from 0.000564414 to 0.000564414
Heightened Def Con from 0.000564426 to 0.000564432
Heightened Def Con from 0.000568435 to 0.000568436
Heightened Def Con from 0.00056968 to 0.00056968
Heightened Def Con from 0.000569692 to 0.000569702
Heightened Def Con from 0.000572957 to 0.000572959
Heightened Def Con from 0.00057296 to 0.000572961
Heightened Def Con from 0.000575246 to 0.000575246
Heightened Def Con from 0.000577421 to 0.000577421
Heightened Def Con from 0.000577422 to 0.000577442
Heightened Def Con from 0.0005808 to 0.000580801
Heightened Def Con from 0.000580802 to 0.000580802
Heightened Def Con from 0.000581952 to 0.000581952
Heightened Def Con from 0.000581962 to 0.000581969
Heightened Def Con from 0.000586052 to 0.000586054
Heightened Def Con from 0.000586055 to 0.000586055
Heightened Def Con from 0.000586683 to 0.000586683
Heightened Def Con from 0.000586694 to 0.000586701
Heightened Def Con from 0.000590914 to 0.000590916
Heightened Def Con from 0.000590917 to 0.000590917
Heightened Def Con from 0.000591717 to 0.00059172
Heightened Def Con from 0.000591721 to 0.000591721
Heightened Def Con from 0.000591732 to 0.000591739
Heightened Def Con from 0.000595492 to 0.000595494
Heightened Def Con from 0.000595495 to 0.000595495
Heightened Def Con from 0.000597078 to 0.000597079
Heightened Def Con from 0.000597089 to 0.000597091
Heightened Def Con from 0.000599914 to 0.000599915
Heightened Def Con from 0.000599917 to 0.000599917
Heightened Def Con from 0.000602591 to 0.000602591
Heightened Def Con from 0.000604328 to 0.000604328
Heightened Def Con from 0.000607974 to 0.000607974
Heightened Def Con from 0.000608883 to 0.000608883
Heightened Def Con from 0.000608894 to 0.0006089
Heightened Def Con from 0.000613041 to 0.000613043
Heightened Def Con from 0.000613045 to 0.000613045
Heightened Def Con from 0.000613722 to 0.000613722
Heightened Def Con from 0.000613734 to 0.00061374
Heightened Def Con from 0.000617803 to 0.000617803
Heightened Def Con from 0.000618932 to 0.000618932
Heightened Def Con from 0.000618944 to 0.00061895
Heightened Def Con from 0.000622347 to 0.000622347
Heightened Def Con from 0.000624473 to 0.000624473
Heightened Def Con from 0.000626809 to 0.000626809
Heightened Def Con from 0.000630052 to 0.000630052
Heightened Def Con from 0.000631321 to 0.000631321
Heightened Def Con from 0.000631332 to 0.000631343
Heightened Def Con from 0.000635357 to 0.000635357
Heightened Def Con from 0.000636019 to 0.000636019
Heightened Def Con from 0.00063603 to 0.000636037
Heightened Def Con from 0.000640277 to 0.000640277
Heightened Def Con from 0.000641006 to 0.000641009
Heightened Def Con from 0.00064101 to 0.00064101
Heightened Def Con from 0.000641021 to 0.000641028
Heightened Def Con from 0.000644881 to 0.000644881
Heightened Def Con from 0.000646323 to 0.000646329
Heightened Def Con from 0.00064633 to 0.00064633
Heightened Def Con from 0.000646341 to 0.000646352
Heightened Def Con from 0.000649309 to 0.000649309
Heightened Def Con from 0.000651836 to 0.000651836
Heightened Def Con from 0.000651837 to 0.000651858
Heightened Def Con from 0.00065372 to 0.00065372
Heightened Def Con from 0.000657252 to 0.000657252
Heightened Def Con from 0.000658241 to 0.000658242
Heightened Def Con from 0.000658253 to 0.000658263
Heightened Def Con from 0.000662366 to 0.000662368
Heightened Def Con from 0.00066237 to 0.00066237
Heightened Def Con from 0.000663033 to 0.000663033
Heightened Def Con from 0.000663045 to 0.000663051
Heightened Def Con from 0.000667166 to 0.000667166
Heightened Def Con from 0.000668197 to 0.000668197
Heightened Def Con from 0.000668209 to 0.000668215
Heightened Def Con from 0.00067173 to 0.000671732
Heightened Def Con from 0.000671733 to 0.000671733
Heightened Def Con from 0.0006737 to 0.000673705
Heightened Def Con from 0.000673706 to 0.000673706
Heightened Def Con from 0.000676196 to 0.000676197
Heightened Def Con from 0.000676198 to 0.000676198
Heightened Def Con from 0.000679296 to 0.000679296
Heightened Def Con from 0.000680693 to 0.000680696
Heightened Def Con from 0.000680697 to 0.000680697
Heightened Def Con from 0.000680708 to 0.000680717
Heightened Def Con from 0.000684652 to 0.000684652
Heightened Def Con from 0.00068536 to 0.00068536
Heightened Def Con from 0.00068537 to 0.000685377
Heightened Def Con from 0.000689624 to 0.000689624
Heightened Def Con from 0.000690303 to 0.000690306
Heightened Def Con from 0.000690307 to 0.000690307
Heightened Def Con from 0.000690318 to 0.000690325
Heightened Def Con from 0.000694257 to 0.000694259
Heightened Def Con from 0.00069426 to 0.000694261
Heightened Def Con from 0.000695582 to 0.000695585
Heightened Def Con from 0.000695586 to 0.000695586
Heightened Def Con from 0.000695597 to 0.000695608
Heightened Def Con from 0.000698709 to 0.00069871
Heightened Def Con from 0.000701081 to 0.000701081
Heightened Def Con from 0.000701084 to 0.000701103
Heightened Def Con from 0.000703112 to 0.000703112
Heightened Def Con from 0.000706525 to 0.000706525
Heightened Def Con from 0.00070761 to 0.00070761
Heightened Def Con from 0.000707621 to 0.000707632
Heightened Def Con from 0.000711686 to 0.000711688
Heightened Def Con from 0.000711689 to 0.00071169
Heightened Def Con from 0.000712354 to 0.000712354
Heightened Def Con from 0.000712366 to 0.000712372
Heightened Def Con from 0.000716525 to 0.000716525
Heightened Def Con from 0.000717467 to 0.000717467
Heightened Def Con from 0.000717479 to 0.000717485
Heightened Def Con from 0.000721113 to 0.000721115
Heightened Def Con from 0.000721117 to 0.000721117
Heightened Def Con from 0.000722927 to 0.000722931
Heightened Def Con from 0.000722932 to 0.000722932
Heightened Def Con from 0.000725588 to 0.000725588
Heightened Def Con from 0.000728539 to 0.000728539
Heightened Def Con from 0.000728539 to 0.000728539
Heightened Def Con from 0.000728541 to 0.000728541
Heightened Def Con from 0.000730069 to 0.000730072
Heightened Def Con from 0.000730073 to 0.000730073
Heightened Def Con from 0.00073394 to 0.000733942
Heightened Def Con from 0.000733942 to 0.000733943
Heightened Def Con from 0.000734703 to 0.000734706
Heightened Def Con from 0.000734707 to 0.000734707
Heightened Def Con from 0.000734717 to 0.000734724
Heightened Def Con from 0.00073896 to 0.000738962
Heightened Def Con from 0.000738963 to 0.000738963
Heightened Def Con from 0.00073961 to 0.00073961
Heightened Def Con from 0.00073962 to 0.000739627
Heightened Def Con from 0.000743639 to 0.000743639
Heightened Def Con from 0.000744838 to 0.000744844
Heightened Def Con from 0.000744845 to 0.000744845
Heightened Def Con from 0.000744855 to 0.000744866
Heightened Def Con from 0.000748105 to 0.000748105
Heightened Def Con from 0.000750324 to 0.000750324
Heightened Def Con from 0.000752502 to 0.000752502
Heightened Def Con from 0.000752505 to 0.000752524
Heightened Def Con from 0.00075579 to 0.000755792
Heightened Def Con from 0.000755793 to 0.000755793
Heightened Def Con from 0.000756982 to 0.000756983
Heightened Def Con from 0.000756994 to 0.000757004
Heightened Def Con from 0.000760998 to 0.000761
Heightened Def Con from 0.000761001 to 0.000761002
Heightened Def Con from 0.000761684 to 0.000761684
Heightened Def Con from 0.000761695 to 0.000761701
Heightened Def Con from 0.000765877 to 0.000765879
Heightened Def Con from 0.00076588 to 0.00076588
Heightened Def Con from 0.000766745 to 0.000766745
Heightened Def Con from 0.000766756 to 0.000766762
Heightened Def Con from 0.000770497 to 0.000770497
Heightened Def Con from 0.000772165 to 0.000772169
Heightened Def Con from 0.000772171 to 0.000772171
Heightened Def Con from 0.000772182 to 0.000772191
Heightened Def Con from 0.000774974 to 0.000774976
Heightened Def Con from 0.000774977 to 0.000774977
Heightened Def Con from 0.000777775 to 0.000777775
Heightened Def Con from 0.000777775 to 0.000777775
Heightened Def Con from 0.000779452 to 0.000779452
Heightened Def Con from 0.000783223 to 0.000783224
Heightened Def Con from 0.000784051 to 0.000784057
Heightened Def Con from 0.000784058 to 0.000784058
Heightened Def Con from 0.000784068 to 0.000784075
Heightened Def Con from 0.000788297 to 0.000788297
Heightened Def Con from 0.000788919 to 0.000788919
Heightened Def Con from 0.00078893 to 0.000788937
Heightened Def Con from 0.00079301 to 0.000793012
Heightened Def Con from 0.000793013 to 0.000793014
Heightened Def Con from 0.000794109 to 0.000794109
Heightened Def Con from 0.00079412 to 0.000794129
Heightened Def Con from 0.000797501 to 0.000797502
Heightened Def Con from 0.000799569 to 0.000799569
Heightened Def Con from 0.000801903 to 0.000801903
Heightened Def Con from 0.000805053 to 0.000805055
Heightened Def Con from 0.000805056 to 0.000805056
Heightened Def Con from 0.000806353 to 0.000806357
Heightened Def Con from 0.000806358 to 0.000806358
Heightened Def Con from 0.00080637 to 0.00080638
Heightened Def Con from 0.000810306 to 0.000810308
Heightened Def Con from 0.000810309 to 0.000810309
Heightened Def Con from 0.000811023 to 0.000811023
Heightened Def Con from 0.000811035 to 0.000811041
Heightened Def Con from 0.000815231 to 0.000815231
Heightened Def Con from 0.000816025 to 0.000816025
Heightened Def Con from 0.000816036 to 0.000816042
Heightened Def Con from 0.000819873 to 0.000819875
Heightened Def Con from 0.000819877 to 0.000819877
Heightened Def Con from 0.000821407 to 0.000821407
Heightened Def Con from 0.000821418 to 0.000821428
Heightened Def Con from 0.000824364 to 0.000824366
Heightened Def Con from 0.000824367 to 0.000824367
Heightened Def Con from 0.000827008 to 0.000827008
Heightened Def Con from 0.00082701 to 0.00082703
Heightened Def Con from 0.000828835 to 0.000828835
Heightened Def Con from 0.000832493 to 0.000832493
Heightened Def Con from 0.000833407 to 0.000833413
Heightened Def Con from 0.000833414 to 0.000833414
Heightened Def Con from 0.000833425 to 0.000833434
Heightened Def Con from 0.000837619 to 0.00083762
Heightened Def Con from 0.000838234 to 0.000838234
Heightened Def Con from 0.000838244 to 0.000838251
Heightened Def Con from 0.000842384 to 0.000842384
Heightened Def Con from 0.000843372 to 0.000843377
Heightened Def Con from 0.000843378 to 0.000843379
Heightened Def Con from 0.000843389 to 0.000843396
Heightened Def Con from 0.000846893 to 0.000846893
Heightened Def Con from 0.000848812 to 0.000848812
Heightened Def Con from 0.000851297 to 0.000851297
Heightened Def Con from 0.000854309 to 0.000854311
Heightened Def Con from 0.000854311 to 0.000854312
Heightened Def Con from 0.000855739 to 0.00085574
Heightened Def Con from 0.000855751 to 0.000855761
Heightened Def Con from 0.000859607 to 0.000859607
Heightened Def Con from 0.00086037 to 0.00086037
Heightened Def Con from 0.000860381 to 0.000860387
Heightened Def Con from 0.000864574 to 0.000864574
Heightened Def Con from 0.000865318 to 0.000865319
Heightened Def Con from 0.00086533 to 0.000865336
Heightened Def Con from 0.000869247 to 0.000869249
Heightened Def Con from 0.000869251 to 0.000869251
Heightened Def Con from 0.000870652 to 0.000870652
Heightened Def Con from 0.000870663 to 0.000870673
Heightened Def Con from 0.000873752 to 0.000873754
Heightened Def Con from 0.000873755 to 0.000873755
Heightened Def Con from 0.000876237 to 0.000876237
Heightened Def Con from 0.000878218 to 0.000878218
Heightened Def Con from 0.000881762 to 0.000881762
Heightened Def Con from 0.000882768 to 0.000882774
Heightened Def Con from 0.000882775 to 0.000882775
Heightened Def Con from 0.000882785 to 0.000882793
Heightened Def Con from 0.000887549 to 0.000887554
Heightened Def Con from 0.000887555 to 0.000887555
Heightened Def Con from 0.000887566 to 0.000887573
Heightened Def Con from 0.000891748 to 0.000891748
Heightened Def Con from 0.000892647 to 0.000892652
Heightened Def Con from 0.000892653 to 0.000892653
Heightened Def Con from 0.000892664 to 0.000892671
Heightened Def Con from 0.000896283 to 0.000896284
Heightened Def Con from 0.000896285 to 0.000896285
Heightened Def Con from 0.000898056 to 0.000898056
Heightened Def Con from 0.000898067 to 0.000898071
Heightened Def Con from 0.000900691 to 0.000900691
Heightened Def Con from 0.000900692 to 0.000900692
Heightened Def Con from 0.000903562 to 0.000903563
Heightened Def Con from 0.000903565 to 0.000903565
Heightened Def Con from 0.000905116 to 0.00090512
Heightened Def Con from 0.000905121 to 0.000905122
Heightened Def Con from 0.000908897 to 0.000908899
Heightened Def Con from 0.0009089 to 0.000908901
Heightened Def Con from 0.000909716 to 0.000909716
Heightened Def Con from 0.000913909 to 0.000913911
Heightened Def Con from 0.000913912 to 0.000913912
Heightened Def Con from 0.000914614 to 0.000914614
Heightened Def Con from 0.000914625 to 0.000914631
Heightened Def Con from 0.000918624 to 0.000918624
Heightened Def Con from 0.000919902 to 0.000919903
Heightened Def Con from 0.000919914 to 0.000919922
Heightened Def Con from 0.000923143 to 0.000923143
Heightened Def Con from 0.000925474 to 0.000925474
Heightened Def Con from 0.000927605 to 0.000927605
Heightened Def Con from 0.000931011 to 0.000931015
Heightened Def Con from 0.000931017 to 0.000931018
Heightened Def Con from 0.000931019 to 0.000931019
Heightened Def Con from 0.00093214 to 0.00093214
Heightened Def Con from 0.000932151 to 0.000932162
Heightened Def Con from 0.000936256 to 0.000936256
Heightened Def Con from 0.000936876 to 0.000936881
Heightened Def Con from 0.000936883 to 0.000936883
Heightened Def Con from 0.000936893 to 0.0009369
Heightened Def Con from 0.000941112 to 0.000941112
Heightened Def Con from 0.00094193 to 0.000941933
Heightened Def Con from 0.000941934 to 0.000941934
Heightened Def Con from 0.000941944 to 0.000941951
Heightened Def Con from 0.000945673 to 0.000945673
Heightened Def Con from 0.000947302 to 0.000947302
Heightened Def Con from 0.000947313 to 0.000947324
Heightened Def Con from 0.00095009 to 0.000950091
Heightened Def Con from 0.000950092 to 0.000950092
Heightened Def Con from 0.000952815 to 0.000952815
Heightened Def Con from 0.000954507 to 0.000954507
Heightened Def Con from 0.000958187 to 0.000958187
Heightened Def Con from 0.000959072 to 0.000959072
Heightened Def Con from 0.000959083 to 0.000959089
Heightened Def Con from 0.000963244 to 0.000963245
Heightened Def Con from 0.000963921 to 0.000963921
Heightened Def Con from 0.000963932 to 0.000963938
Heightened Def Con from 0.000967987 to 0.000967989
Heightened Def Con from 0.000967991 to 0.000967991
Heightened Def Con from 0.000969155 to 0.000969155
Heightened Def Con from 0.000969166 to 0.000969172
Heightened Def Con from 0.000972527 to 0.000972529
Heightened Def Con from 0.00097253 to 0.00097253
Heightened Def Con from 0.000974699 to 0.0009747
Heightened Def Con from 0.000976992 to 0.000977013
Heightened Def Con from 0.000980269 to 0.00098027
Heightened Def Con from 0.000980271 to 0.000980272
Heightened Def Con from 0.000981504 to 0.00098151
Heightened Def Con from 0.00098151 to 0.000981511
Heightened Def Con from 0.000981521 to 0.000981532
Heightened Def Con from 0.00098556 to 0.00098556
Heightened Def Con from 0.00098621 to 0.000986215
Heightened Def Con from 0.000986217 to 0.000986217
Heightened Def Con from 0.000986228 to 0.000986235
Heightened Def Con from 0.000990457 to 0.000990459
Heightened Def Con from 0.000990459 to 0.000990459
Heightened Def Con from 0.000991223 to 0.000991223
Heightened Def Con from 0.000991234 to 0.000991241
Heightened Def Con from 0.000995056 to 0.000995056
Heightened Def Con from 0.000996547 to 0.000996553
Heightened Def Con from 0.000996553 to 0.000996554
Heightened Def Con from 0.000996564 to 0.000996575
Heightened Def Con from 0.000999485 to 0.000999486
Heightened Def Con from 0.000999488 to 0.000999488
Heightened Def Con from 0.00100206 to 0.00100206
Heightened Def Con from 0.00100206 to 0.00100208
Heightened Def Con from 0.0010039 to 0.0010039
Heightened Def Con from 0.00100747 to 0.00100747
Heightened Def Con from 0.00100843 to 0.00100843
Heightened Def Con from 0.00100845 to 0.00100846
Heightened Def Con from 0.00101257 to 0.00101257
Heightened Def Con from 0.00101323 to 0.00101323
Heightened Def Con from 0.00101324 to 0.00101325
Heightened Def Con from 0.00101735 to 0.00101736
Heightened Def Con from 0.00101736 to 0.00101736
Heightened Def Con from 0.00101841 to 0.00101841
Heightened Def Con from 0.00101842 to 0.00101843
Heightened Def Con from 0.00102191 to 0.00102192
Heightened Def Con from 0.00102192 to 0.00102192
Heightened Def Con from 0.00102393 to 0.00102393
Heightened Def Con from 0.00102638 to 0.00102638
Heightened Def Con from 0.00102952 to 0.00102952
Heightened Def Con from 0.00103088 to 0.00103088
Heightened Def Con from 0.00103088 to 0.00103088
Heightened Def Con from 0.00103089 to 0.0010309
Heightened Def Con from 0.00103486 to 0.00103486
Heightened Def Con from 0.00103555 to 0.00103555
Heightened Def Con from 0.00103556 to 0.00103556
Heightened Def Con from 0.00103557 to 0.00103557
Heightened Def Con from 0.00103981 to 0.00103981
Heightened Def Con from 0.00104051 to 0.00104051
Heightened Def Con from 0.00104052 to 0.00104052
Heightened Def Con from 0.00104053 to 0.00104053
Heightened Def Con from 0.00104444 to 0.00104444
Heightened Def Con from 0.0010458 to 0.00104581
Heightened Def Con from 0.00104581 to 0.00104581
Heightened Def Con from 0.00104582 to 0.00104583
Heightened Def Con from 0.00104889 to 0.00104889
Heightened Def Con from 0.00105131 to 0.00105131
Heightened Def Con from 0.00105329 to 0.00105329
Heightened Def Con from 0.00105674 to 0.00105674
Heightened Def Con from 0.0010578 to 0.0010578
Heightened Def Con from 0.00105781 to 0.00105782
Heightened Def Con from 0.00106189 to 0.00106189
Heightened Def Con from 0.00106255 to 0.00106255
Heightened Def Con from 0.00106257 to 0.00106257
Heightened Def Con from 0.00106672 to 0.00106672
Heightened Def Con from 0.00106768 to 0.00106768
Heightened Def Con from 0.00106769 to 0.00106769
Heightened Def Con from 0.0010713 to 0.0010713
Heightened Def Con from 0.0010713 to 0.0010713
Heightened Def Con from 0.00107316 to 0.00107316
Heightened Def Con from 0.00107316 to 0.00107316
Heightened Def Con from 0.00107577 to 0.00107577
Heightened Def Con from 0.00107577 to 0.00107577
Heightened Def Con from 0.00107876 to 0.00107876
Heightened Def Con from 0.00107876 to 0.00107876
Heightened Def Con from 0.00108025 to 0.00108026
Heightened Def Con from 0.00108026 to 0.00108026
Heightened Def Con from 0.00108027 to 0.00108027
Heightened Def Con from 0.00108415 to 0.00108415
Heightened Def Con from 0.00108489 to 0.0010849
Heightened Def Con from 0.0010849 to 0.0010849
Heightened Def Con from 0.00108491 to 0.00108492
Heightened Def Con from 0.00108915 to 0.00108916
Heightened Def Con from 0.00108981 to 0.00108981
Heightened Def Con from 0.00108982 to 0.00108982
Heightened Def Con from 0.00108983 to 0.00108983
Heightened Def Con from 0.00109382 to 0.00109382
Heightened Def Con from 0.00109383 to 0.00109383
Heightened Def Con from 0.00109506 to 0.00109506
Heightened Def Con from 0.00109506 to 0.00109506
Heightened Def Con from 0.00109508 to 0.00109508
Heightened Def Con from 0.00109828 to 0.00109828
Heightened Def Con from 0.00110055 to 0.00110055
Heightened Def Con from 0.00110268 to 0.00110268
Heightened Def Con from 0.00110601 to 0.00110601
Heightened Def Con from 0.00110601 to 0.00110601
Heightened Def Con from 0.00110716 to 0.00110716
Heightened Def Con from 0.00110718 to 0.00110718
Heightened Def Con from 0.00111118 to 0.00111118
Heightened Def Con from 0.0011112 to 0.00111121
Heightened Def Con from 0.00111121 to 0.00111121
Heightened Def Con from 0.00111188 to 0.00111188
Heightened Def Con from 0.00111189 to 0.0011119
Heightened Def Con from 0.00111607 to 0.00111607
Heightened Def Con from 0.00111695 to 0.00111695
Heightened Def Con from 0.00111696 to 0.00111697
Heightened Def Con from 0.00112068 to 0.00112068
Heightened Def Con from 0.00112068 to 0.00112068
Heightened Def Con from 0.00112239 to 0.00112239
Heightened Def Con from 0.00112239 to 0.00112239
Heightened Def Con from 0.00112516 to 0.00112516
Heightened Def Con from 0.001128 to 0.001128
Heightened Def Con from 0.001128 to 0.001128
Heightened Def Con from 0.001128 to 0.001128
Heightened Def Con from 0.00112964 to 0.00112964
Heightened Def Con from 0.00113343 to 0.00113343
Heightened Def Con from 0.00113343 to 0.00113343
Heightened Def Con from 0.00113424 to 0.00113425
Heightened Def Con from 0.00113425 to 0.00113425
Heightened Def Con from 0.00113426 to 0.00113427
Heightened Def Con from 0.00113849 to 0.00113849
Heightened Def Con from 0.00113912 to 0.00113912
Heightened Def Con from 0.00113913 to 0.00113914
Heightened Def Con from 0.0011432 to 0.0011432
Heightened Def Con from 0.00114432 to 0.00114433
Heightened Def Con from 0.00114433 to 0.00114433
Heightened Def Con from 0.00114434 to 0.00114435
Heightened Def Con from 0.00114768 to 0.00114768
Heightened Def Con from 0.00114979 to 0.00114979
Heightened Def Con from 0.00115208 to 0.00115208
Heightened Def Con from 0.00115528 to 0.00115528
Heightened Def Con from 0.00115654 to 0.00115654
Heightened Def Con from 0.00115654 to 0.00115654
Heightened Def Con from 0.00115655 to 0.00115656
Heightened Def Con from 0.00116051 to 0.00116051
Heightened Def Con from 0.00116052 to 0.00116052
Heightened Def Con from 0.00116122 to 0.00116122
Heightened Def Con from 0.00116123 to 0.00116124
Heightened Def Con from 0.00116542 to 0.00116542
Heightened Def Con from 0.00116624 to 0.00116624
Heightened Def Con from 0.00116625 to 0.00116626
Heightened Def Con from 0.00117006 to 0.00117006
Heightened Def Con from 0.00117006 to 0.00117006
Heightened Def Con from 0.00117163 to 0.00117163
Heightened Def Con from 0.00117163 to 0.00117163
Heightened Def Con from 0.00117164 to 0.00117165
Heightened Def Con from 0.00117454 to 0.00117455
Heightened Def Con from 0.00117455 to 0.00117455
Heightened Def Con from 0.00117723 to 0.00117724
Heightened Def Con from 0.00117902 to 0.00117902
Heightened Def Con from 0.00118271 to 0.00118271
Heightened Def Con from 0.0011836 to 0.0011836
Heightened Def Con from 0.00118361 to 0.00118361
Heightened Def Con from 0.00118362 to 0.00118363
Heightened Def Con from 0.00118782 to 0.00118782
Heightened Def Con from 0.00118844 to 0.00118844
Heightened Def Con from 0.00118845 to 0.00118845
Heightened Def Con from 0.00119257 to 0.00119257
Heightened Def Con from 0.00119359 to 0.00119359
Heightened Def Con from 0.0011936 to 0.0011936
Heightened Def Con from 0.00119361 to 0.00119361
Heightened Def Con from 0.00119707 to 0.00119707
Heightened Def Con from 0.00119904 to 0.00119904
Heightened Def Con from 0.00120147 to 0.00120147
Heightened Def Con from 0.00120453 to 0.00120453
Heightened Def Con from 0.00120591 to 0.00120592
Heightened Def Con from 0.00120592 to 0.00120592
Heightened Def Con from 0.00120593 to 0.00120594
Heightened Def Con from 0.00120982 to 0.00120982
Heightened Def Con from 0.00121056 to 0.00121056
Heightened Def Con from 0.00121057 to 0.00121058
Heightened Def Con from 0.00121477 to 0.00121477
Heightened Def Con from 0.00121477 to 0.00121477
Heightened Def Con from 0.00121552 to 0.00121552
Heightened Def Con from 0.00121553 to 0.00121554
Heightened Def Con from 0.00121943 to 0.00121944
Heightened Def Con from 0.00121944 to 0.00121944
Heightened Def Con from 0.00122087 to 0.00122087
Heightened Def Con from 0.00122088 to 0.00122089
Heightened Def Con from 0.00122394 to 0.00122394
Heightened Def Con from 0.00122647 to 0.00122647
Heightened Def Con from 0.00122647 to 0.00122649
Heightened Def Con from 0.0012284 to 0.0012284
Heightened Def Con from 0.00123197 to 0.00123197
Heightened Def Con from 0.00123198 to 0.00123198
Heightened Def Con from 0.00123296 to 0.00123296
Heightened Def Con from 0.00123296 to 0.00123296
Heightened Def Con from 0.00123297 to 0.00123298
Heightened Def Con from 0.00123714 to 0.00123714
Heightened Def Con from 0.00123776 to 0.00123776
Heightened Def Con from 0.00123777 to 0.00123777
Heightened Def Con from 0.00124193 to 0.00124193
Heightened Def Con from 0.00124287 to 0.00124287
Heightened Def Con from 0.00124288 to 0.00124289
Heightened Def Con from 0.00124646 to 0.00124646
Heightened Def Con from 0.00124827 to 0.00124828
Heightened Def Con from 0.00124828 to 0.00124828
Heightened Def Con from 0.00125087 to 0.00125087
Heightened Def Con from 0.00125087 to 0.00125087
Heightened Def Con from 0.00125378 to 0.00125379
Heightened Def Con from 0.00125379 to 0.00125379
Heightened Def Con from 0.0012553 to 0.0012553
Heightened Def Con from 0.0012553 to 0.0012553
Heightened Def Con from 0.00125911 to 0.00125911
Heightened Def Con from 0.00125991 to 0.00125991
Heightened Def Con from 0.00125992 to 0.00125993
Heightened Def Con from 0.00126411 to 0.00126411
Heightened Def Con from 0.00126482 to 0.00126482
Heightened Def Con from 0.00126483 to 0.00126484
Heightened Def Con from 0.00126881 to 0.00126881
Heightened Def Con from 0.00126881 to 0.00126881
Heightened Def Con from 0.00127012 to 0.00127012
Heightened Def Con from 0.00127013 to 0.00127014
Heightened Def Con from 0.00127333 to 0.00127333
Heightened Def Con from 0.0012757 to 0.0012757
Heightened Def Con from 0.00127779 to 0.00127779
Heightened Def Con from 0.00127779 to 0.00127781
Heightened Def Con from 0.00128124 to 0.00128124
Heightened Def Con from 0.00128124 to 0.00128124
Heightened Def Con from 0.00128232 to 0.00128233
Heightened Def Con from 0.00128233 to 0.00128233
Heightened Def Con from 0.00128234 to 0.00128235
Heightened Def Con from 0.00128645 to 0.00128645
Heightened Def Con from 0.00128646 to 0.00128646
Heightened Def Con from 0.00128708 to 0.00128708
Heightened Def Con from 0.00128709 to 0.0012871
Heightened Def Con from 0.0012913 to 0.0012913
Heightened Def Con from 0.0012913 to 0.0012913
Heightened Def Con from 0.00129214 to 0.00129215
Heightened Def Con from 0.00129215 to 0.00129215
Heightened Def Con from 0.00129216 to 0.00129217
Heightened Def Con from 0.00129585 to 0.00129585
Heightened Def Con from 0.00129585 to 0.00129585
Heightened Def Con from 0.00129753 to 0.00129753
Heightened Def Con from 0.00129754 to 0.00129755
Heightened Def Con from 0.00130027 to 0.00130027
Heightened Def Con from 0.00130304 to 0.00130304
Heightened Def Con from 0.00130304 to 0.00130304
Heightened Def Con from 0.00130468 to 0.00130469
Heightened Def Con from 0.00130469 to 0.00130469
Heightened Def Con from 0.0013084 to 0.0013084
Heightened Def Con from 0.0013084 to 0.0013084
Heightened Def Con from 0.00130926 to 0.00130926
Heightened Def Con from 0.00130927 to 0.00130928
Heightened Def Con from 0.00131345 to 0.00131345
Heightened Def Con from 0.00131413 to 0.00131413
Heightened Def Con from 0.00131414 to 0.00131414
Heightened Def Con from 0.00131818 to 0.00131818
Heightened Def Con from 0.00131818 to 0.00131818
Heightened Def Con from 0.00131937 to 0.00131937
Heightened Def Con from 0.00131938 to 0.00131939
Heightened Def Con from 0.00132271 to 0.00132271
Heightened Def Con from 0.00132271 to 0.00132271
Heightened Def Con from 0.00132493 to 0.00132493
Heightened Def Con from 0.00132717 to 0.00132717
Heightened Def Con from 0.00132718 to 0.0013272
Heightened Def Con from 0.00133049 to 0.00133049
Heightened Def Con from 0.00133049 to 0.00133049
Heightened Def Con from 0.00133169 to 0.0013317
Heightened Def Con from 0.0013317 to 0.0013317
Heightened Def Con from 0.00133171 to 0.00133172
Heightened Def Con from 0.00133576 to 0.00133576
Heightened Def Con from 0.00133641 to 0.00133641
Heightened Def Con from 0.00133641 to 0.00133641
Heightened Def Con from 0.00133643 to 0.00133643
Heightened Def Con from 0.00134065 to 0.00134065
Heightened Def Con from 0.00134143 to 0.00134143
Heightened Def Con from 0.00134143 to 0.00134143
Heightened Def Con from 0.00134144 to 0.00134145
Heightened Def Con from 0.00134524 to 0.00134524
Heightened Def Con from 0.00134524 to 0.00134524
Heightened Def Con from 0.00134677 to 0.00134678
Heightened Def Con from 0.00134678 to 0.00134678
Heightened Def Con from 0.00134679 to 0.0013468
Heightened Def Con from 0.00134966 to 0.00134966
Heightened Def Con from 0.00134967 to 0.00134967
Heightened Def Con from 0.00135229 to 0.00135229
Heightened Def Con from 0.00135229 to 0.00135229
Heightened Def Con from 0.00135407 to 0.00135407
Heightened Def Con from 0.00135768 to 0.00135768
Heightened Def Con from 0.00135768 to 0.00135768
Heightened Def Con from 0.00135862 to 0.00135862
Heightened Def Con from 0.00135863 to 0.00135864
Heightened Def Con from 0.00136277 to 0.00136277
Heightened Def Con from 0.00136277 to 0.00136277
Heightened Def Con from 0.00136343 to 0.00136343
Heightened Def Con from 0.00136344 to 0.00136345
Heightened Def Con from 0.00136754 to 0.00136754
Heightened Def Con from 0.00136755 to 0.00136755
Heightened Def Con from 0.00136863 to 0.00136863
Heightened Def Con from 0.00136864 to 0.00136865
Heightened Def Con from 0.0013721 to 0.0013721
Heightened Def Con from 0.00137416 to 0.00137416
Heightened Def Con from 0.00137656 to 0.00137656
Heightened Def Con from 0.00137975 to 0.00137975
Heightened Def Con from 0.00138107 to 0.00138107
Heightened Def Con from 0.00138108 to 0.00138109
Heightened Def Con from 0.00138506 to 0.00138506
Heightened Def Con from 0.00138507 to 0.00138507
Heightened Def Con from 0.00138575 to 0.00138575
Heightened Def Con from 0.00138576 to 0.00138577
Heightened Def Con from 0.00139001 to 0.00139001
Heightened Def Con from 0.00139073 to 0.00139073
Heightened Def Con from 0.00139074 to 0.00139074
Heightened Def Con from 0.00139462 to 0.00139462
Heightened Def Con from 0.00139603 to 0.00139603
Heightened Def Con from 0.00139603 to 0.00139603
Heightened Def Con from 0.00139604 to 0.00139605
Heightened Def Con from 0.00139906 to 0.00139906
Heightened Def Con from 0.00139906 to 0.00139906
Heightened Def Con from 0.00140153 to 0.00140153
Heightened Def Con from 0.00140153 to 0.00140155
Heightened Def Con from 0.00140346 to 0.00140346
Heightened Def Con from 0.00140696 to 0.00140696
Heightened Def Con from 0.00140696 to 0.00140696
Heightened Def Con from 0.00140798 to 0.00140798
Heightened Def Con from 0.00140799 to 0.001408
Heightened Def Con from 0.00141209 to 0.00141209
Heightened Def Con from 0.0014121 to 0.0014121
Heightened Def Con from 0.00141275 to 0.00141275
Heightened Def Con from 0.00141277 to 0.00141277
Heightened Def Con from 0.00141691 to 0.00141691
Heightened Def Con from 0.00141789 to 0.00141789
Heightened Def Con from 0.00141791 to 0.00141791
Heightened Def Con from 0.00142148 to 0.00142148
Heightened Def Con from 0.00142148 to 0.00142148
Heightened Def Con from 0.00142338 to 0.00142338
Heightened Def Con from 0.00142338 to 0.00142338
Heightened Def Con from 0.00142595 to 0.00142595
Heightened Def Con from 0.00142898 to 0.00142898
Heightened Def Con from 0.00143044 to 0.00143044
Heightened Def Con from 0.00143044 to 0.00143044
Heightened Def Con from 0.00143045 to 0.00143046
Heightened Def Con from 0.00143436 to 0.00143436
Heightened Def Con from 0.00143509 to 0.00143509
Heightened Def Con from 0.0014351 to 0.0014351
Heightened Def Con from 0.00143511 to 0.00143511
Heightened Def Con from 0.00143935 to 0.00143935
Heightened Def Con from 0.00144002 to 0.00144002
Heightened Def Con from 0.00144002 to 0.00144002
Heightened Def Con from 0.00144004 to 0.00144004
Heightened Def Con from 0.001444 to 0.001444
Heightened Def Con from 0.00144529 to 0.00144529
Heightened Def Con from 0.0014453 to 0.0014453
Heightened Def Con from 0.00144846 to 0.00144846
Heightened Def Con from 0.00144846 to 0.00144846
Heightened Def Con from 0.00145078 to 0.00145078
Heightened Def Con from 0.00145286 to 0.00145286
Heightened Def Con from 0.00145287 to 0.00145288
Heightened Def Con from 0.00145623 to 0.00145623
Heightened Def Con from 0.00145735 to 0.00145735
Heightened Def Con from 0.00145736 to 0.00145737
Heightened Def Con from 0.00146141 to 0.00146141
Heightened Def Con from 0.00146208 to 0.00146208
Heightened Def Con from 0.00146209 to 0.0014621
Heightened Def Con from 0.00146626 to 0.00146626
Heightened Def Con from 0.00146626 to 0.00146626
Heightened Def Con from 0.00146717 to 0.00146717
Heightened Def Con from 0.00146718 to 0.00146718
Heightened Def Con from 0.00147087 to 0.00147087
Heightened Def Con from 0.00147261 to 0.00147261
Heightened Def Con from 0.00147263 to 0.00147264
Heightened Def Con from 0.00147534 to 0.00147534
Heightened Def Con from 0.00147534 to 0.00147534
Heightened Def Con from 0.00147822 to 0.00147822
Heightened Def Con from 0.00147982 to 0.00147982
Heightened Def Con from 0.00148364 to 0.00148364
Heightened Def Con from 0.00148444 to 0.00148444
Heightened Def Con from 0.00148444 to 0.00148444
Heightened Def Con from 0.00148445 to 0.00148446
Heightened Def Con from 0.00148868 to 0.00148869
Heightened Def Con from 0.00148869 to 0.00148869
Heightened Def Con from 0.00148933 to 0.00148933
Heightened Def Con from 0.00148934 to 0.00148935
Heightened Def Con from 0.00149338 to 0.00149338
Heightened Def Con from 0.00149338 to 0.00149338
Heightened Def Con from 0.00149454 to 0.00149455
Heightened Def Con from 0.00149455 to 0.00149455
Heightened Def Con from 0.00149456 to 0.00149457
Heightened Def Con from 0.00149785 to 0.00149785
Heightened Def Con from 0.00149786 to 0.00149786
N-Period=1
Fourier components of V(vo)
DC component:-0.2658

Harmonic	Frequency	 Fourier 	Normalized	 Phase  	Normalized
 Number 	  [Hz]   	Component	 Component	[degree]	Phase [deg]
    1   	2.000e+04	2.199e+01	1.000e+00	  -32.14°	    0.00°
    2   	4.000e+04	3.308e-02	1.505e-03	  -28.96°	    3.19°
    3   	6.000e+04	5.629e-02	2.560e-03	   21.78°	   53.93°
Total Harmonic Distortion: 0.296939%(8.084634%)



Date: Mon Mar 02 20:37:26 2020
Total elapsed time: 503.888 seconds.

tnom = 27
temp = 27
method = modified trap
totiter = 3557353
traniter = 3557353
tranpoints = 1106525
accept = 822028
rejected = 285168
matrix size = 370
fillins = 558
solver = Alternate
Thread vector: 119.2/68.6[5] 30.4/23.5[5] 21.8/9.0[5] 6.7/15.1[1]  2592/500
Matrix Compiler1: 64.41 KB object code size  31.0/18.7/[10.0]
Matrix Compiler2: 42.59 KB object code size  14.6/16.1/[6.4]

