Circuit: * C:\Users\emanu\Desktop\DCE-GRUPO10\REALIMENTADOR\Compensador.asc

WARNING: Less than two connections to node VCC.  This node is used by VCC1.
WARNING: Less than two connections to node VEE.  This node is used by VSS1.
WARNING: Less than two connections to node 5V.  This node is used by V1.
WARNING: Less than two connections to node -5V.  This node is used by V2.
Early termination of direct N-R iteration.
Direct Newton iteration failed to find .op point.  (Use ".option noopiter" to skip.)
Starting Gmin stepping
Gmin = 10
vernier = 0.5
vernier = 0.25
vernier = 0.125
Gmin = 5.5165
vernier = 0.0625
vernier = 0.03125
vernier = 0.015625
vernier = 0.0078125
Gmin = 5.48432
vernier = 0.00390625
vernier = 0.00195313
vernier = 0.000976563
vernier = 0.000488281
Gmin = 0
Gmin stepping succeeded in finding the operating point.


Date: Fri Mar 13 02:00:18 2020
Total elapsed time: 9.715 seconds.

tnom = 27
temp = 27
method = modified trap
totiter = 563224
traniter = 561842
tranpoints = 280922
accept = 217983
rejected = 62939
matrix size = 68
fillins = 141
solver = Alternate
Thread vector: 5.0/3.4[2] 1.7/1.4[2] 1.4/1.0[2] 0.7/1.1[1]  2592/500
Matrix Compiler1: 13.83 KB object code size  2.0/1.4/[0.9]
Matrix Compiler2: 8.72 KB object code size  1.5/1.4/[0.6]

