Circuit: * C:\Users\emanu\Desktop\DCE-GRUPO10\REALIMENTADOR\Draft1.asc

Direct Newton iteration for .op point succeeded.

Date: Wed Mar 18 23:49:43 2020
Total elapsed time: 0.241 seconds.

tnom = 27
temp = 27
method = trap
totiter = 4
traniter = 0
tranpoints = 0
accept = 0
rejected = 0
matrix size = 10
fillins = 1
solver = Alternate
Matrix Compiler1:      27 opcodes
Matrix Compiler2: 962 bytes object code size
