Circuit: * C:\Users\emanu\Desktop\DCE-GRUPO10\REALIMENTADOR\Realimentador.asc

Questionable use of curly braces in "b§e_abmgate yint 0 v={if(v(a)>{{vthresh}},{{vss}},{{vdd}})}"
    Error: undefined symbol in: "if([v](a)>((vthresh)),((vss)),((vdd)))"
Questionable use of curly braces in "b§e_abmgate yint 0 v={if(v(a)>{{vthresh}}&v(b)>{{vthresh}},{{vdd}},{{vss}})}"
    Error: undefined symbol in: "if([v](a)>((vthresh))&v(b)>((vthresh)),((vdd)),((vss)))"
Questionable use of curly braces in "b§e_abmgate yint 0 v={if(v(a)>{{vthresh}}&v(b)>{{vthresh}},{{vdd}},{{vss}})}"
    Error: undefined symbol in: "if([v](a)>((vthresh))&v(b)>((vthresh)),((vdd)),((vss)))"
Questionable use of curly braces in "b§e_abmgate yint 0 v={if(v(a)>{{vthresh}},{{vss}},{{vdd}})}"
    Error: undefined symbol in: "if([v](a)>((vthresh)),((vss)),((vdd)))"
Questionable use of curly braces in "b§e_abmgate yint 0 v={if(v(a)>{{vthresh}}&v(b)>{{vthresh}},{{vdd}},{{vss}})}"
    Error: undefined symbol in: "if([v](a)>((vthresh))&v(b)>((vthresh)),((vdd)),((vss)))"
Questionable use of curly braces in "b§e_abmgate yint 0 v={if(v(a)>{{vthresh}},{{vss}},{{vdd}})}"
    Error: undefined symbol in: "if([v](a)>((vthresh)),((vss)),((vdd)))"
WARNING: Less than two connections to node -5V.  This node is used by V2.
WARNING: Less than two connections to node NC_03.  This node is used by V:U4:_V11.
WARNING: Less than two connections to node NC_02.  This node is used by V:U4:_V12.
WARNING: Less than two connections to node NC_01.  This node is used by V:U4:_V13.
WARNING: Less than two connections to node NC_04.  This node is used by V:U4:_V14.
Instance "m:u4:_m12:1": Length shorter than recommended for a level 1 MOSFET.
Instance "m:u4:_m14:1": Length shorter than recommended for a level 1 MOSFET.
Instance "m:u4:_m15:1": Length shorter than recommended for a level 1 MOSFET.
Instance "m:u4:_m13:1": Length shorter than recommended for a level 1 MOSFET.
Instance "m:m2:2": Length shorter than recommended for a level 3 MOSFET.
Instance "m:m2:1": Length shorter than recommended for a level 3 MOSFET.
Instance "m:m1:2": Length shorter than recommended for a level 3 MOSFET.
Instance "m:m1:1": Length shorter than recommended for a level 3 MOSFET.
Per .tran options, skipping operating point for transient analysis.
Ignoring empty pin current: Ix(u4:vcci_1)
Changing Tseed to 1.95313e-10
Changing Tseed to 1.95312e-12
Changing Tseed to 1.95312e-09
Changing Tseed to 1.95313e-13
Changing Tseed to 1.95312e-08
Changing Tseed to 1.95312e-14
Changing Tseed to 1.95312e-07
Changing Tseed to 1.95312e-15
Changing Tseed to 1.95313e-06
Changing Tseed to 1.95312e-16
Changing Tseed to 1.95312e-05
Changing Tseed to 1.95312e-17
Heightened Def Con from 0 Changing Tseed to 1e-09
Changing Tseed to 1e-11
Changing Tseed to 1e-08
Changing Tseed to 1e-12
Changing Tseed to 1e-07
Changing Tseed to 1e-13
Changing Tseed to 1e-06
Changing Tseed to 1e-14
Changing Tseed to 1e-05
Changing Tseed to 1e-15
Changing Tseed to 0.0001
Changing Tseed to 1e-16
+Changing Tseed to 1e-09
Changing Tseed to 1e-11
Changing Tseed to 1e-08
Changing Tseed to 1e-12
Changing Tseed to 1e-07
Changing Tseed to 1e-13
Changing Tseed to 1e-06
Changing Tseed to 1e-14
Changing Tseed to 1e-05
Changing Tseed to 1e-15
Changing Tseed to 0.0001
Changing Tseed to 1e-16
+Changing Tseed to 1e-09
Changing Tseed to 1e-11
Changing Tseed to 1e-08
Changing Tseed to 1e-12
Changing Tseed to 1e-07
Changing Tseed to 1e-13
Changing Tseed to 1e-06
Changing Tseed to 1e-14
Changing Tseed to 1e-05
Changing Tseed to 1e-15
Changing Tseed to 0.0001
Changing Tseed to 1e-16
+Changing Tseed to 1e-09
Changing Tseed to 1e-11
Changing Tseed to 1e-08
Changing Tseed to 1e-12
Changing Tseed to 1e-07
Changing Tseed to 1e-13
Changing Tseed to 1e-06
Changing Tseed to 1e-14
Changing Tseed to 1e-05
Changing Tseed to 1e-15
Changing Tseed to 0.0001
Changing Tseed to 1e-16
+Changing Tseed to 1e-09
Changing Tseed to 1e-11
Changing Tseed to 1e-08
Changing Tseed to 1e-12
Changing Tseed to 1e-07
Changing Tseed to 1e-13
Changing Tseed to 1e-06
Changing Tseed to 1e-14
Changing Tseed to 1e-05
Changing Tseed to 1e-15
Changing Tseed to 0.0001
Changing Tseed to 1e-16
+Changing Tseed to 1e-09
Changing Tseed to 1e-11
Changing Tseed to 1e-08
Changing Tseed to 1e-12
Changing Tseed to 1e-07
Changing Tseed to 1e-13
Changing Tseed to 1e-06
Changing Tseed to 1e-14
Changing Tseed to 1e-05
Changing Tseed to 1e-15
Changing Tseed to 0.0001
Changing Tseed to 1e-16
+Changing Tseed to 1e-09
Changing Tseed to 1e-11
Changing Tseed to 1e-08
Changing Tseed to 1e-12
Changing Tseed to 1e-07
Changing Tseed to 1e-13
Changing Tseed to 1e-06
Changing Tseed to 1e-14
Changing Tseed to 1e-05
Changing Tseed to 1e-15
Changing Tseed to 0.0001
Changing Tseed to 1e-16
+Changing Tseed to 1e-09
Changing Tseed to 1e-11
Changing Tseed to 1e-08
Changing Tseed to 1e-12
Changing Tseed to 1e-07
Changing Tseed to 1e-13
Changing Tseed to 1e-06
Changing Tseed to 1e-14
Changing Tseed to 1e-05
Changing Tseed to 1e-15
Changing Tseed to 0.0001
Changing Tseed to 1e-16
+Changing Tseed to 1e-09
Changing Tseed to 1e-11
Changing Tseed to 1e-08
Changing Tseed to 1e-12
Changing Tseed to 1e-07
Changing Tseed to 1e-13
Changing Tseed to 1e-06
Changing Tseed to 1e-14
Changing Tseed to 1e-05
Changing Tseed to 1e-15
Changing Tseed to 0.0001
Changing Tseed to 1e-16
+Changing Tseed to 1e-09
Changing Tseed to 1e-11
Changing Tseed to 1e-08
Changing Tseed to 1e-12
Changing Tseed to 1e-07
Changing Tseed to 1e-13
Changing Tseed to 1e-06
Changing Tseed to 1e-14
Changing Tseed to 1e-05
Changing Tseed to 1e-15
Changing Tseed to 0.0001
Changing Tseed to 1e-16
+Changing Tseed to 1e-09
Changing Tseed to 1e-11
Changing Tseed to 1e-08
Changing Tseed to 1e-12
Changing Tseed to 1e-07
Changing Tseed to 1e-13
Changing Tseed to 1e-06
Changing Tseed to 1e-14
Changing Tseed to 1e-05
Changing Tseed to 1e-15
Changing Tseed to 0.0001
Changing Tseed to 1e-16
+Changing Tseed to 1e-09
Changing Tseed to 1e-11
Changing Tseed to 1e-08
Changing Tseed to 1e-12
Changing Tseed to 1e-07
Changing Tseed to 1e-13
Changing Tseed to 1e-06
Changing Tseed to 1e-14
Changing Tseed to 1e-05
Changing Tseed to 1e-15
Changing Tseed to 0.0001
Changing Tseed to 1e-16
+Changing Tseed to 1e-09
Changing Tseed to 1e-11
Changing Tseed to 1e-08
Changing Tseed to 1e-12
Changing Tseed to 1e-07
Changing Tseed to 1e-13
Changing Tseed to 1e-06
Changing Tseed to 1e-14
Changing Tseed to 1e-05
Changing Tseed to 1e-15
Changing Tseed to 0.0001
Changing Tseed to 1e-16
+Changing Tseed to 1e-09
Changing Tseed to 1e-11
Changing Tseed to 1e-08
Changing Tseed to 1e-12
Changing Tseed to 1e-07
Changing Tseed to 1e-13
Changing Tseed to 1e-06
Changing Tseed to 1e-14
Changing Tseed to 1e-05
Changing Tseed to 1e-15
Changing Tseed to 0.0001
Changing Tseed to 1e-16
+Changing Tseed to 1e-09
Changing Tseed to 1e-11
Changing Tseed to 1e-08
Changing Tseed to 1e-12
Changing Tseed to 1e-07
Changing Tseed to 1e-13
Changing Tseed to 1e-06
Changing Tseed to 1e-14
Changing Tseed to 1e-05
Changing Tseed to 1e-15
Changing Tseed to 0.0001
Changing Tseed to 1e-16
+Changing Tseed to 1e-09
Changing Tseed to 1e-11
Changing Tseed to 1e-08
Changing Tseed to 1e-12
Changing Tseed to 1e-07
Changing Tseed to 1e-13
Changing Tseed to 1e-06
Changing Tseed to 1e-14
Changing Tseed to 1e-05
Changing Tseed to 1e-15
Changing Tseed to 0.0001
Changing Tseed to 1e-16
+Changing Tseed to 1e-09
Changing Tseed to 1e-11
Changing Tseed to 1e-08
Changing Tseed to 1e-12
Changing Tseed to 1e-07
Changing Tseed to 1e-13
Changing Tseed to 1e-06
Changing Tseed to 1e-14
Changing Tseed to 1e-05
Changing Tseed to 1e-15
Changing Tseed to 0.0001
Changing Tseed to 1e-16
+Changing Tseed to 1e-09
Changing Tseed to 1e-11
Changing Tseed to 1e-08
Changing Tseed to 1e-12
Changing Tseed to 1e-07
Changing Tseed to 1e-13
Changing Tseed to 1e-06
Changing Tseed to 1e-14
Changing Tseed to 1e-05
Changing Tseed to 1e-15
Changing Tseed to 0.0001
Changing Tseed to 1e-16
+Changing Tseed to 1e-09
Changing Tseed to 1e-11
Changing Tseed to 1e-08
Changing Tseed to 1e-12
Changing Tseed to 1e-07
Changing Tseed to 1e-13
Changing Tseed to 1e-06
Changing Tseed to 1e-14
Changing Tseed to 1e-05
Changing Tseed to 1e-15
Changing Tseed to 0.0001
Changing Tseed to 1e-16
+Changing Tseed to 1e-09
Changing Tseed to 1e-11
Changing Tseed to 1e-08
Changing Tseed to 1e-12
Changing Tseed to 1e-07
Changing Tseed to 1e-13
Changing Tseed to 1e-06
Changing Tseed to 1e-14
Changing Tseed to 1e-05
Changing Tseed to 1e-15
Changing Tseed to 0.0001
Changing Tseed to 1e-16
+Changing Tseed to 1e-09
Changing Tseed to 1e-11
Changing Tseed to 1e-08
Changing Tseed to 1e-12
Changing Tseed to 1e-07
Changing Tseed to 1e-13
Changing Tseed to 1e-06
Changing Tseed to 1e-14
Changing Tseed to 1e-05
Changing Tseed to 1e-15
Changing Tseed to 0.0001
Changing Tseed to 1e-16
+Changing Tseed to 1e-09
Changing Tseed to 1e-11
Changing Tseed to 1e-08
Changing Tseed to 1e-12
Changing Tseed to 1e-07
Changing Tseed to 1e-13
Changing Tseed to 1e-06
Changing Tseed to 1e-14
Changing Tseed to 1e-05
Changing Tseed to 1e-15
Changing Tseed to 0.0001
Changing Tseed to 1e-16
+Changing Tseed to 1e-09
Changing Tseed to 1e-11
Changing Tseed to 1e-08
Changing Tseed to 1e-12
Changing Tseed to 1e-07
Changing Tseed to 1e-13
Changing Tseed to 1e-06
Changing Tseed to 1e-14
Changing Tseed to 1e-05
Changing Tseed to 1e-15
Changing Tseed to 0.0001
Changing Tseed to 1e-16
+Changing Tseed to 1e-09
Changing Tseed to 1e-11
Changing Tseed to 1e-08
Changing Tseed to 1e-12
Changing Tseed to 1e-07
Changing Tseed to 1e-13
Changing Tseed to 1e-06
Changing Tseed to 1e-14
Changing Tseed to 1e-05
Changing Tseed to 1e-15
Changing Tseed to 0.0001
Changing Tseed to 1e-16
+Changing Tseed to 1e-09
Changing Tseed to 1e-11
Changing Tseed to 1e-08
Changing Tseed to 1e-12
Changing Tseed to 1e-07
Changing Tseed to 1e-13
Changing Tseed to 1e-06
Changing Tseed to 1e-14
Changing Tseed to 1e-05
Changing Tseed to 1e-15
Changing Tseed to 0.0001
Changing Tseed to 1e-16
+Changing Tseed to 1e-09
Changing Tseed to 1e-11
Changing Tseed to 1e-08
Changing Tseed to 1e-12
Changing Tseed to 1e-07
Changing Tseed to 1e-13
Changing Tseed to 1e-06
Changing Tseed to 1e-14
Changing Tseed to 1e-05
Changing Tseed to 1e-15
Changing Tseed to 0.0001
Changing Tseed to 1e-16
+Changing Tseed to 1e-09
Changing Tseed to 1e-11
Changing Tseed to 1e-08
Changing Tseed to 1e-12
Changing Tseed to 1e-07
Changing Tseed to 1e-13
Changing Tseed to 1e-06
Changing Tseed to 1e-14
Changing Tseed to 1e-05
Changing Tseed to 1e-15
Changing Tseed to 0.0001
Changing Tseed to 1e-16
+Changing Tseed to 1e-09
Changing Tseed to 1e-11
Changing Tseed to 1e-08
Changing Tseed to 1e-12
Changing Tseed to 1e-07
Changing Tseed to 1e-13
Changing Tseed to 1e-06
Changing Tseed to 1e-14
Changing Tseed to 1e-05
Changing Tseed to 1e-15
Changing Tseed to 0.0001
Changing Tseed to 1e-16
+Changing Tseed to 1e-09
Changing Tseed to 1e-11
Changing Tseed to 1e-08
Changing Tseed to 1e-12
Changing Tseed to 1e-07
Changing Tseed to 1e-13
Changing Tseed to 1e-06
Changing Tseed to 1e-14
Changing Tseed to 1e-05
Changing Tseed to 1e-15
Changing Tseed to 0.0001
Changing Tseed to 1e-16
+Changing Tseed to 1e-09
Changing Tseed to 1e-11
Changing Tseed to 1e-08
Changing Tseed to 1e-12
Changing Tseed to 1e-07
Changing Tseed to 1e-13
Changing Tseed to 1e-06
Changing Tseed to 1e-14
Changing Tseed to 1e-05
Changing Tseed to 1e-15
Changing Tseed to 0.0001
Changing Tseed to 1e-16
+Changing Tseed to 1e-09
Changing Tseed to 1e-11
Changing Tseed to 1e-08
Changing Tseed to 1e-12
Changing Tseed to 1e-07
Changing Tseed to 1e-13
Changing Tseed to 1e-06
Changing Tseed to 1e-14
Changing Tseed to 1e-05
Changing Tseed to 1e-15
Changing Tseed to 0.0001
Changing Tseed to 1e-16
+Changing Tseed to 1e-09
Changing Tseed to 1e-11
Changing Tseed to 1e-08
Changing Tseed to 1e-12
Changing Tseed to 1e-07
Changing Tseed to 1e-13
Changing Tseed to 1e-06
Changing Tseed to 1e-14
Changing Tseed to 1e-05
Changing Tseed to 1e-15
Changing Tseed to 0.0001
Changing Tseed to 1e-16
+Changing Tseed to 1e-09
Changing Tseed to 1e-11
Changing Tseed to 1e-08
Changing Tseed to 1e-12
Changing Tseed to 1e-07
Changing Tseed to 1e-13
Changing Tseed to 1e-06
Changing Tseed to 1e-14
Changing Tseed to 1e-05
Changing Tseed to 1e-15
Changing Tseed to 0.0001
Changing Tseed to 1e-16
+Changing Tseed to 1e-09
Changing Tseed to 1e-11
Changing Tseed to 1e-08
Changing Tseed to 1e-12
Changing Tseed to 1e-07
Changing Tseed to 1e-13
Changing Tseed to 1e-06
Changing Tseed to 1e-14
Changing Tseed to 1e-05
Changing Tseed to 1e-15
Changing Tseed to 0.0001
Changing Tseed to 1e-16
+Changing Tseed to 1e-09
Changing Tseed to 1e-11
Changing Tseed to 1e-08
Changing Tseed to 1e-12
Changing Tseed to 1e-07
Changing Tseed to 1e-13
Changing Tseed to 1e-06
Changing Tseed to 1e-14
Changing Tseed to 1e-05
Changing Tseed to 1e-15
Changing Tseed to 0.0001
Changing Tseed to 1e-16
+Changing Tseed to 1e-09
Changing Tseed to 1e-11
Changing Tseed to 1e-08
Changing Tseed to 1e-12
Changing Tseed to 1e-07
Changing Tseed to 1e-13
Changing Tseed to 1e-06
Changing Tseed to 1e-14
Changing Tseed to 1e-05
Changing Tseed to 1e-15
Changing Tseed to 0.0001
Changing Tseed to 1e-16
+Changing Tseed to 1e-09
Changing Tseed to 1e-11
Changing Tseed to 1e-08
Changing Tseed to 1e-12
Changing Tseed to 1e-07
Changing Tseed to 1e-13
Changing Tseed to 1e-06
Changing Tseed to 1e-14
Changing Tseed to 1e-05
Changing Tseed to 1e-15
Changing Tseed to 0.0001
Changing Tseed to 1e-16
+Changing Tseed to 1e-09
Changing Tseed to 1e-11
Changing Tseed to 1e-08
Changing Tseed to 1e-12
Changing Tseed to 1e-07
Changing Tseed to 1e-13
Changing Tseed to 1e-06
Changing Tseed to 1e-14
Changing Tseed to 1e-05
Changing Tseed to 1e-15
Changing Tseed to 0.0001
Changing Tseed to 1e-16
+Changing Tseed to 1e-09
Changing Tseed to 1e-11
Changing Tseed to 1e-08
Changing Tseed to 1e-12
Changing Tseed to 1e-07
Changing Tseed to 1e-13
Changing Tseed to 1e-06
Changing Tseed to 1e-14
Changing Tseed to 1e-05
Changing Tseed to 1e-15
Changing Tseed to 0.0001
Changing Tseed to 1e-16
to 7.25e-18
Heightened Def Con from 7.25e-18 +++++++++++++++++++++++++++to 2.74665e-13
Heightened Def Con from 2.74665e-13 +++++++++++++++++++++++++to 1.78528e-11
Heightened Def Con from 5.00112e-05 to 5.00113e-05
Heightened Def Con from 7.53686e-05 to 7.53687e-05
Heightened Def Con from 9.44653e-05 to 9.44654e-05
Heightened Def Con from 0.000125259 to 0.00012526
Heightened Def Con from 0.000136705 to 0.000136713
Heightened Def Con from 0.000143596 to 0.000143596
Heightened Def Con from 0.000175931 to 0.000175932
Heightened Def Con from 0.000176073 to 0.000176073
Heightened Def Con from 0.000188832 to 0.000188832
Heightened Def Con from 0.00019624 to 0.000196243
Heightened Def Con from 0.000196244 to 0.000196244
Heightened Def Con from 0.000203293 to 0.000203295
Heightened Def Con from 0.000203296 to 0.000203297
Heightened Def Con from 0.000217043 to 0.000217043
Heightened Def Con from 0.000217044 to 0.000217046
Heightened Def Con from 0.00021707 to 0.00021707
Heightened Def Con from 0.000226294 to 0.000226294
Heightened Def Con from 0.000231852 to 0.000231853
Heightened Def Con from 0.000244259 to 0.000244261
Heightened Def Con from 0.000244263 to 0.000244264
Heightened Def Con from 0.000256599 to 0.000256599
Heightened Def Con from 0.000260785 to 0.000260787
Heightened Def Con from 0.000260788 to 0.000260788
Heightened Def Con from 0.000271191 to 0.000271191
Heightened Def Con from 0.000271213 to 0.000271217
Heightened Def Con from 0.000271218 to 0.000271218
Heightened Def Con from 0.000284505 to 0.000284507
Heightened Def Con from 0.000284509 to 0.000284509
Heightened Def Con from 0.000289981 to 0.000289983
Heightened Def Con from 0.000289984 to 0.000289984
Heightened Def Con from 0.000298944 to 0.000298946
Heightened Def Con from 0.000298947 to 0.000298947
Heightened Def Con from 0.000312519 to 0.000312521
Heightened Def Con from 0.000312545 to 0.000312547
Heightened Def Con from 0.000318798 to 0.0003188
Heightened Def Con from 0.000318801 to 0.000318801
Heightened Def Con from 0.000326203 to 0.000326222
Heightened Def Con from 0.000326229 to 0.00032623
Heightened Def Con from 0.000339733 to 0.000339735
Heightened Def Con from 0.000339736 to 0.000339736
Heightened Def Con from 0.000346893 to 0.000346893
Heightened Def Con from 0.000346894 to 0.000346918
Heightened Def Con from 0.00034692 to 0.00034692
Heightened Def Con from 0.000353262 to 0.000353264
Heightened Def Con from 0.000353265 to 0.000353265
Heightened Def Con from 0.000366384 to 0.000366384
Heightened Def Con from 0.000366385 to 0.000366387
Heightened Def Con from 0.000366412 to 0.000366412
Heightened Def Con from 0.000375925 to 0.000375925
Heightened Def Con from 0.000381205 to 0.000381206
Heightened Def Con from 0.000381231 to 0.000381231
Heightened Def Con from 0.00039344 to 0.00039344
Heightened Def Con from 0.000404792 to 0.000404795
Heightened Def Con from 0.000404796 to 0.000404796
Heightened Def Con from 0.000409452 to 0.000409452
Heightened Def Con from 0.000420297 to 0.000420299
Heightened Def Con from 0.0004203 to 0.0004203
Heightened Def Con from 0.00043279 to 0.00043279
Heightened Def Con from 0.000437914 to 0.000437915
Heightened Def Con from 0.000447489 to 0.000447491
Heightened Def Con from 0.000447493 to 0.000447493
Heightened Def Con from 0.000461161 to 0.000461161
Heightened Def Con from 0.000466738 to 0.00046674
Heightened Def Con from 0.000466742 to 0.000466743
Heightened Def Con from 0.000474647 to 0.000474647
Heightened Def Con from 0.000474675 to 0.000474675
Heightened Def Con from 0.00048892 to 0.00048892
Heightened Def Con from 0.000495944 to 0.000495946
Heightened Def Con from 0.000495972 to 0.000495972
Heightened Def Con from 0.00050241 to 0.000502413
Heightened Def Con from 0.000502414 to 0.000502414
Heightened Def Con from 0.000516181 to 0.0005162
Heightened Def Con from 0.000516207 to 0.000516207
Heightened Def Con from 0.000525477 to 0.000525477
Heightened Def Con from 0.000531453 to 0.000531455
Heightened Def Con from 0.000531457 to 0.000531457
Heightened Def Con from 0.000544318 to 0.00054432
Heightened Def Con from 0.000544321 to 0.000544322
Heightened Def Con from 0.000557053 to 0.000557053
Heightened Def Con from 0.000561471 to 0.000561471
Heightened Def Con from 0.000571811 to 0.000571812
Heightened Def Con from 0.0005854 to 0.0005854
Heightened Def Con from 0.000591322 to 0.000591322
Heightened Def Con from 0.00059135 to 0.000591351
Heightened Def Con from 0.000599883 to 0.000599883
Heightened Def Con from 0.000613587 to 0.000613588
Heightened Def Con from 0.000613609 to 0.000613612
Heightened Def Con from 0.000613613 to 0.000613614
Heightened Def Con from 0.000620273 to 0.000620273
Heightened Def Con from 0.00062714 to 0.000627144
Heightened Def Con from 0.000627145 to 0.000627145
Heightened Def Con from 0.000640513 to 0.000640513
Heightened Def Con from 0.000648684 to 0.000648687
Heightened Def Con from 0.000648688 to 0.000648688
Heightened Def Con from 0.000654576 to 0.000654576
Heightened Def Con from 0.000667286 to 0.000667286
Heightened Def Con from 0.000667288 to 0.000667308
Heightened Def Con from 0.000667311 to 0.000667313
Heightened Def Con from 0.000667314 to 0.000667314
Heightened Def Con from 0.000677907 to 0.000677907
Heightened Def Con from 0.000682873 to 0.000682875
Heightened Def Con from 0.000682876 to 0.000682876
Heightened Def Con from 0.000694389 to 0.000694389
Heightened Def Con from 0.000706247 to 0.000706248
Heightened Def Con from 0.000711106 to 0.000711108
Heightened Def Con from 0.00071111 to 0.00071111
Heightened Def Con from 0.000721305 to 0.000721308
Heightened Def Con from 0.000721309 to 0.000721309
Heightened Def Con from 0.000734131 to 0.000734131
Heightened Def Con from 0.000734159 to 0.000734159
Heightened Def Con from 0.000739549 to 0.000739552
Heightened Def Con from 0.000739552 to 0.000739553
Heightened Def Con from 0.00074848 to 0.00074848
Heightened Def Con from 0.000762745 to 0.000762747
Heightened Def Con from 0.000762768 to 0.00076277
Heightened Def Con from 0.000762771 to 0.000762771
Heightened Def Con from 0.000768691 to 0.000768693
Heightened Def Con from 0.000768695 to 0.000768695
Heightened Def Con from 0.000775711 to 0.000775713
Heightened Def Con from 0.000775715 to 0.000775716
Heightened Def Con from 0.000789833 to 0.000789835
Heightened Def Con from 0.000789837 to 0.000789837
Heightened Def Con from 0.000798209 to 0.00079821
Heightened Def Con from 0.000804664 to 0.000804664
Heightened Def Con from 0.0008182 to 0.000818203
Heightened Def Con from 0.000818204 to 0.000818204
Heightened Def Con from 0.000829021 to 0.000829023
Heightened Def Con from 0.000829025 to 0.000829025
Heightened Def Con from 0.000834032 to 0.000834056
Heightened Def Con from 0.000834058 to 0.000834058
Heightened Def Con from 0.000845619 to 0.000845619
Heightened Def Con from 0.000858746 to 0.000858746
Heightened Def Con from 0.000858769 to 0.000858772
Heightened Def Con from 0.000858773 to 0.000858773
Heightened Def Con from 0.000863688 to 0.000863688
Heightened Def Con from 0.000873082 to 0.000873083
Heightened Def Con from 0.000873109 to 0.00087311
Heightened Def Con from 0.000886807 to 0.000886807
Heightened Def Con from 0.000892909 to 0.000892909
Heightened Def Con from 0.000892936 to 0.000892936
Heightened Def Con from 0.000900779 to 0.000900781
Heightened Def Con from 0.000900782 to 0.000900783
Heightened Def Con from 0.000914394 to 0.000914394
Heightened Def Con from 0.000921459 to 0.000921459
Heightened Def Con from 0.000927928 to 0.000927928
Heightened Def Con from 0.00092793 to 0.000927954
Heightened Def Con from 0.000927956 to 0.000927956
Heightened Def Con from 0.000941187 to 0.000941189
Heightened Def Con from 0.000941191 to 0.000941192
Heightened Def Con from 0.000950352 to 0.000950355
Heightened Def Con from 0.000950356 to 0.000950356
Heightened Def Con from 0.000955829 to 0.00095583
Heightened Def Con from 0.000968106 to 0.000968106
Heightened Def Con from 0.000968135 to 0.000968136
Heightened Def Con from 0.000979271 to 0.000979271
Heightened Def Con from 0.000984 to 0.000984
Heightened Def Con from 0.000984024 to 0.000984026
Heightened Def Con from 0.000984027 to 0.000984027
Heightened Def Con from 0.000995075 to 0.000995075
Heightened Def Con from 0.00100735 to 0.00100735
Heightened Def Con from 0.00101246 to 0.00101246
Heightened Def Con from 0.00101247 to 0.00101247
Heightened Def Con from 0.00102216 to 0.00102216
Heightened Def Con from 0.00102216 to 0.00102218
Heightened Def Con from 0.00102219 to 0.00102219
Heightened Def Con from 0.00102219 to 0.00102219
Heightened Def Con from 0.00103554 to 0.00103554
Heightened Def Con from 0.00104099 to 0.00104099
Heightened Def Con from 0.00104101 to 0.00104101
Heightened Def Con from 0.00104929 to 0.00104929
Heightened Def Con from 0.00106353 to 0.00106353
Heightened Def Con from 0.00106355 to 0.00106356
Heightened Def Con from 0.00106356 to 0.00106356
Heightened Def Con from 0.00107002 to 0.00107002
Heightened Def Con from 0.00107662 to 0.00107662
Heightened Def Con from 0.00107665 to 0.00107665
Heightened Def Con from 0.00107665 to 0.00107665
Heightened Def Con from 0.00109046 to 0.00109046
Heightened Def Con from 0.00109942 ++++++++++++to 0.00109942
Heightened Def Con from 0.00109944 to 0.00109945
Heightened Def Con from 0.00109945 to 0.00109945
Heightened Def Con from 0.00110562 to 0.00110562
Heightened Def Con from 0.00110564 to 0.00110565
Heightened Def Con from 0.00110565 to 0.00110565
Heightened Def Con from 0.00111869 to 0.00111869
Heightened Def Con from 0.00111871 to 0.00111871
Heightened Def Con from 0.00111871 to 0.00111871
Heightened Def Con from 0.00113032 to 0.00113032
Heightened Def Con from 0.00113032 to 0.00113032
Heightened Def Con from 0.00113513 ++++++++++++++to 0.00113513
Heightened Def Con from 0.00113515 to 0.00113516
Heightened Def Con from 0.00113516 to 0.00113516
Heightened Def Con from 0.00114626 to 0.00114627
Heightened Def Con from 0.00114627 to 0.00114627
Heightened Def Con from 0.00115973 to 0.00115974
Heightened Def Con from 0.00115975 to 0.00115975
Heightened Def Con from 0.00115975 to 0.00115975
Heightened Def Con from 0.00116529 to 0.00116529
Heightened Def Con from 0.00117418 to 0.00117418
Heightened Def Con from 0.00117418 to 0.00117418
Heightened Def Con from 0.0011742 to 0.00117421
Heightened Def Con from 0.00117421 to 0.00117421
Heightened Def Con from 0.00118792 to 0.00118792
Heightened Def Con from 0.00119436 to 0.00119436
Heightened Def Con from 0.00119436 to 0.00119436
Heightened Def Con from 0.00120165 to 0.00120165
Heightened Def Con from 0.00121508 to 0.00121508
Heightened Def Con from 0.00122254 to 0.00122254
Heightened Def Con from 0.00122254 to 0.00122255
Heightened Def Con from 0.00122257 to 0.00122257
Heightened Def Con from 0.00122875 to 0.00122875
Heightened Def Con from 0.00124184 to 0.00124184
Heightened Def Con from 0.00125204 to 0.00125204
Heightened Def Con from 0.00125707 to 0.00125707
Heightened Def Con from 0.00125707 +to 0.00125707
Heightened Def Con from 0.0012571 to 0.0012571
Heightened Def Con from 0.0012571 to 0.0012571
Heightened Def Con from 0.00126888 to 0.00126888
Heightened Def Con from 0.00126891 to 0.00126891
Heightened Def Con from 0.00126891 to 0.00126891
Heightened Def Con from 0.00128055 to 0.00128056
Heightened Def Con from 0.00128056 to 0.00128056
Heightened Def Con from 0.00128522 to 0.00128522
Heightened Def Con from 0.00128525 to 0.00128525
Heightened Def Con from 0.00128525 to 0.00128525
Heightened Def Con from 0.0012958 to 0.00129581
Heightened Def Con from 0.00129581 to 0.00129581
Heightened Def Con from 0.00130846 to 0.00130846
Heightened Def Con from 0.00130846 to 0.00130846
Heightened Def Con from 0.00131385 to 0.00131385
Heightened Def Con from 0.00131386 to 0.00131386
Heightened Def Con from 0.00132308 to 0.00132308
Heightened Def Con from 0.00133725 to 0.00133725
Heightened Def Con from 0.00134293 to 0.00134293
Heightened Def Con from 0.00134294 to 0.00134296
Heightened Def Con from 0.00135031 to 0.00135031
Heightened Def Con from 0.00136448 to 0.00136448
Heightened Def Con from 0.00136451 to 0.00136451
Heightened Def Con from 0.00137257 to 0.00137257
Heightened Def Con from 0.00137908 to 0.00137908
Heightened Def Con from 0.00137911 to 0.00137911
Heightened Def Con from 0.00139282 to 0.00139282
Heightened Def Con from 0.00140284 to 0.00140284
Heightened Def Con from 0.00140816 to 0.00140816
Heightened Def Con from 0.00142019 to 0.00142019
Heightened Def Con from 0.00142019 to 0.00142019
Heightened Def Con from 0.00143318 to 0.00143318
Heightened Def Con from 0.00143764 to 0.00143764
Heightened Def Con from 0.00143766 to 0.00143766
Heightened Def Con from 0.00144742 to 0.00144742
Heightened Def Con from 0.00144742 to 0.00144742
Heightened Def Con from 0.00146107 to 0.00146108
Heightened Def Con from 0.00146709 to 0.00146709
Heightened Def Con from 0.00147529 to 0.00147529
Heightened Def Con from 0.00147529 to 0.00147531
Heightened Def Con from 0.00147532 to 0.00147532
Heightened Def Con from 0.00148895 to 0.00148896
Heightened Def Con from 0.00148896 to 0.00148896
Heightened Def Con from 0.00149576 to 0.00149576
Heightened Def Con from 0.00149578 to 0.00149579
Heightened Def Con from 0.00150254 to 0.00150254
Heightened Def Con from 0.0015158 to 0.0015158
Heightened Def Con from 0.00151582 to 0.00151582
Heightened Def Con from 0.00151582 to 0.00151582
Heightened Def Con from 0.0015243 to 0.0015243
Heightened Def Con from 0.00153002 to 0.00153003
Heightened Def Con from 0.00153003 to 0.00153003
Heightened Def Con from 0.00154266 to 0.00154266
Heightened Def Con from 0.00154269 to 0.00154269
Heightened Def Con from 0.00154269 to 0.00154269
Heightened Def Con from 0.00155358 to 0.00155358
Heightened Def Con from 0.00155358 to 0.0015536
Heightened Def Con from 0.0015536 to 0.0015536
Heightened Def Con from 0.00155836 to 0.00155836
Heightened Def Con from 0.00156962 to 0.00156962
Heightened Def Con from 0.00156965 to 0.00156965
Heightened Def Con from 0.00158177 to 0.00158177
Heightened Def Con from 0.00158659 to 0.00158659
Heightened Def Con from 0.0015866 to 0.0015866
Heightened Def Con from 0.00159664 to 0.00159665
Heightened Def Con from 0.00159665 to 0.00159665
Heightened Def Con from 0.00160958 to 0.00160958
Heightened Def Con from 0.00160961 to 0.00160961
Heightened Def Con from 0.00161506 to 0.00161506
Heightened Def Con from 0.00162378 to 0.00162378
Heightened Def Con from 0.0016238 to 0.0016238
Heightened Def Con from 0.00163788 to 0.00163788
Heightened Def Con from 0.00163789 to 0.00163789
Heightened Def Con from 0.00164391 to 0.00164391
Heightened Def Con from 0.00164391 to 0.00164392
Heightened Def Con from 0.001651 to 0.001651
Heightened Def Con from 0.00166484 to 0.00166484
Heightened Def Con from 0.00166486 to 0.00166486
Heightened Def Con from 0.00166486 to 0.00166486
Heightened Def Con from 0.0016729 to 0.0016729
Heightened Def Con from 0.00167886 ++to 0.00167886
Heightened Def Con from 0.00167886 +to 0.00167886
Heightened Def Con from 0.00167888 to 0.00167888
Heightened Def Con from 0.00169202 to 0.00169203
Heightened Def Con from 0.00170197 to 0.00170197
Heightened Def Con from 0.00170199 to 0.00170199
Heightened Def Con from 0.00170199 to 0.00170199
Heightened Def Con from 0.00170757 to 0.00170757
Heightened Def Con from 0.0017196 to 0.0017196
Heightened Def Con from 0.001732 to 0.001732
Heightened Def Con from 0.001732 to 0.001732
Heightened Def Con from 0.0017368 to 0.0017368
Heightened Def Con from 0.00173681 to 0.00173681
Heightened Def Con from 0.00174697 to 0.00174697
Heightened Def Con from 0.00174698 to 0.00174698
Heightened Def Con from 0.0017611 to 0.00176111
Heightened Def Con from 0.00176111 to 0.00176111
Heightened Def Con from 0.00176722 to 0.00176722
Heightened Def Con from 0.00176722 to 0.00176722
Heightened Def Con from 0.00177561 to 0.00177561
Heightened Def Con from 0.00178941 to 0.00178941
Heightened Def Con from 0.0017966 to 0.0017966
Heightened Def Con from 0.0017966 to 0.0017966
Heightened Def Con from 0.00179663 to 0.00179663
Heightened Def Con from 0.0018032 to 0.0018032
Heightened Def Con from 0.00180323 to 0.00180323
Heightened Def Con from 0.00181645 to 0.00181645
Heightened Def Con from 0.00182596 to 0.00182596
Heightened Def Con from 0.00183128 to 0.00183128
Heightened Def Con from 0.00183128 to 0.00183128
Heightened Def Con from 0.0018435 to 0.0018435
Heightened Def Con from 0.00185492 to 0.00185492
Heightened Def Con from 0.00185953 to 0.00185953
Heightened Def Con from 0.00187033 to 0.00187034
Heightened Def Con from 0.00187035 to 0.00187035
Heightened Def Con from 0.00188289 to 0.00188289
Heightened Def Con from 0.00188801 to 0.00188801
Heightened Def Con from 0.00189756 to 0.00189756
Heightened Def Con from 0.00191117 to 0.00191117
Heightened Def Con from 0.0019112 to 0.0019112
Heightened Def Con from 0.00191681 to 0.00191682
Heightened Def Con from 0.00191682 to 0.00191682
Heightened Def Con from 0.00192473 +to 0.00192473
Heightened Def Con from 0.00192473 to 0.00192473
Heightened Def Con from 0.00192475 to 0.00192475
Heightened Def Con from 0.00193891 to 0.00193891
Heightened Def Con from 0.0019458 to 0.0019458
Heightened Def Con from 0.00194583 to 0.00194583
Heightened Def Con from 0.00194583 to 0.00194583
Heightened Def Con from 0.00195231 to 0.00195232
Heightened Def Con from 0.00195232 to 0.00195232
Heightened Def Con from 0.00196599 to 0.00196599
Heightened Def Con from 0.00196601 to 0.00196601
Heightened Def Con from 0.00196601 to 0.00196601
Heightened Def Con from 0.00197527 to 0.00197527
Heightened Def Con from 0.00197527 to 0.00197527
Heightened Def Con from 0.0019812 to 0.0019812
Heightened Def Con from 0.00198123 to 0.00198123
Heightened Def Con from 0.00199405 to 0.00199405

Date: Fri Mar 13 02:05:35 2020
Total elapsed time: 156.345 seconds.

tnom = 27
temp = 27
method = modified trap
totiter = 2465292
traniter = 2465292
tranpoints = 713710
accept = 579637
rejected = 134071
matrix size = 420
fillins = 664
solver = Alternate
Thread vector: 55.0/29.7[5] 14.4/8.5[5] 9.4/5.4[5] 3.7/3.5[2]  2592/500
Matrix Compiler1: 76.51 KB object code size  12.3/7.7/[4.1]
Matrix Compiler2: 49.73 KB object code size  5.6/6.1/[2.8]

