Circuit: * C:\Users\emanu\Desktop\DCE-GRUPO10\DISTORSION\OTRAS\LAZO ABIERTO\Distorsion_20k_ol.asc

Questionable use of curly braces in "b§e_abmgate yint 0 v={if(v(a)>{{vthresh}},{{vss}},{{vdd}})}"
    Error: undefined symbol in: "if([v](a)>((vthresh)),((vss)),((vdd)))"
Questionable use of curly braces in "b§e_abmgate yint 0 v={if(v(a)>{{vthresh}}&v(b)>{{vthresh}},{{vdd}},{{vss}})}"
    Error: undefined symbol in: "if([v](a)>((vthresh))&v(b)>((vthresh)),((vdd)),((vss)))"
Questionable use of curly braces in "b§e_abmgate yint 0 v={if(v(a)>{{vthresh}}&v(b)>{{vthresh}},{{vdd}},{{vss}})}"
    Error: undefined symbol in: "if([v](a)>((vthresh))&v(b)>((vthresh)),((vdd)),((vss)))"
Questionable use of curly braces in "b§e_abmgate yint 0 v={if(v(a)>{{vthresh}},{{vss}},{{vdd}})}"
    Error: undefined symbol in: "if([v](a)>((vthresh)),((vss)),((vdd)))"
Questionable use of curly braces in "b§e_abmgate yint 0 v={if(v(a)>{{vthresh}}&v(b)>{{vthresh}},{{vdd}},{{vss}})}"
    Error: undefined symbol in: "if([v](a)>((vthresh))&v(b)>((vthresh)),((vdd)),((vss)))"
Questionable use of curly braces in "b§e_abmgate yint 0 v={if(v(a)>{{vthresh}},{{vss}},{{vdd}})}"
    Error: undefined symbol in: "if([v](a)>((vthresh)),((vss)),((vdd)))"
WARNING: Less than two connections to node NC_03.  This node is used by V:U4:_V11.
WARNING: Less than two connections to node NC_02.  This node is used by V:U4:_V12.
WARNING: Less than two connections to node NC_01.  This node is used by V:U4:_V13.
WARNING: Less than two connections to node NC_04.  This node is used by V:U4:_V14.
WARNING: Less than two connections to node -15V.  This node is used by V6.
WARNING: Less than two connections to node NC_05.  This node is used by V:U6:CCVS2_IN.
Instance "m:u4:_m12:1": Length shorter than recommended for a level 1 MOSFET.
Instance "m:u4:_m14:1": Length shorter than recommended for a level 1 MOSFET.
Instance "m:u4:_m15:1": Length shorter than recommended for a level 1 MOSFET.
Instance "m:u4:_m13:1": Length shorter than recommended for a level 1 MOSFET.
Instance "m:m2:2": Length shorter than recommended for a level 3 MOSFET.
Instance "m:m2:1": Length shorter than recommended for a level 3 MOSFET.
Instance "m:m1:2": Length shorter than recommended for a level 3 MOSFET.
Instance "m:m1:1": Length shorter than recommended for a level 3 MOSFET.
u6:vccvs1_in: Missing value, assumed 0V @ DC
u6:vccvs2_in: Missing value, assumed 0V @ DC
u6:u2:vcccs1_in: Missing value, assumed 0V @ DC
u6:u2:vam1: Missing value, assumed 0V @ DC
u6:u12:vcccs1_in: Missing value, assumed 0V @ DC
u6:u12:vam1: Missing value, assumed 0V @ DC
u6:vam1: Missing value, assumed 0V @ DC
Per .tran options, skipping operating point for transient analysis.
Ignoring empty pin current: Ix(u4:vcci_1)
Changing Tseed to 9.76563e-11
Changing Tseed to 9.76562e-13
Changing Tseed to 9.76562e-10
Changing Tseed to 9.76563e-14
Changing Tseed to 9.76562e-09
Changing Tseed to 9.76562e-15
Changing Tseed to 9.76562e-08
Changing Tseed to 9.76562e-16
Changing Tseed to 9.76563e-07
Changing Tseed to 9.76562e-17
Changing Tseed to 9.76562e-06
Changing Tseed to 9.76562e-18
Heightened Def Con from 0 Changing Tseed to 1e-09
Changing Tseed to 1e-11
Changing Tseed to 1e-08
Changing Tseed to 1e-12
Changing Tseed to 1e-07
Changing Tseed to 1e-13
Changing Tseed to 1e-06
Changing Tseed to 1e-14
Changing Tseed to 1e-05
Changing Tseed to 1e-15
Changing Tseed to 0.0001
Changing Tseed to 1e-16
+Changing Tseed to 1e-09
Changing Tseed to 1e-11
Changing Tseed to 1e-08
Changing Tseed to 1e-12
Changing Tseed to 1e-07
Changing Tseed to 1e-13
Changing Tseed to 1e-06
Changing Tseed to 1e-14
Changing Tseed to 1e-05
Changing Tseed to 1e-15
Changing Tseed to 0.0001
Changing Tseed to 1e-16
+Changing Tseed to 1e-09
Changing Tseed to 1e-11
Changing Tseed to 1e-08
Changing Tseed to 1e-12
Changing Tseed to 1e-07
Changing Tseed to 1e-13
Changing Tseed to 1e-06
Changing Tseed to 1e-14
Changing Tseed to 1e-05
Changing Tseed to 1e-15
Changing Tseed to 0.0001
Changing Tseed to 1e-16
+Changing Tseed to 1e-09
Changing Tseed to 1e-11
Changing Tseed to 1e-08
Changing Tseed to 1e-12
Changing Tseed to 1e-07
Changing Tseed to 1e-13
Changing Tseed to 1e-06
Changing Tseed to 1e-14
Changing Tseed to 1e-05
Changing Tseed to 1e-15
Changing Tseed to 0.0001
Changing Tseed to 1e-16
+Changing Tseed to 1e-09
Changing Tseed to 1e-11
Changing Tseed to 1e-08
Changing Tseed to 1e-12
Changing Tseed to 1e-07
Changing Tseed to 1e-13
Changing Tseed to 1e-06
Changing Tseed to 1e-14
Changing Tseed to 1e-05
Changing Tseed to 1e-15
Changing Tseed to 0.0001
Changing Tseed to 1e-16
+Changing Tseed to 1e-09
Changing Tseed to 1e-11
Changing Tseed to 1e-08
Changing Tseed to 1e-12
Changing Tseed to 1e-07
Changing Tseed to 1e-13
Changing Tseed to 1e-06
Changing Tseed to 1e-14
Changing Tseed to 1e-05
Changing Tseed to 1e-15
Changing Tseed to 0.0001
Changing Tseed to 1e-16
+Changing Tseed to 1e-09
Changing Tseed to 1e-11
Changing Tseed to 1e-08
Changing Tseed to 1e-12
Changing Tseed to 1e-07
Changing Tseed to 1e-13
Changing Tseed to 1e-06
Changing Tseed to 1e-14
Changing Tseed to 1e-05
Changing Tseed to 1e-15
Changing Tseed to 0.0001
Changing Tseed to 1e-16
+Changing Tseed to 1e-09
Changing Tseed to 1e-11
Changing Tseed to 1e-08
Changing Tseed to 1e-12
Changing Tseed to 1e-07
Changing Tseed to 1e-13
Changing Tseed to 1e-06
Changing Tseed to 1e-14
Changing Tseed to 1e-05
Changing Tseed to 1e-15
Changing Tseed to 0.0001
Changing Tseed to 1e-16
+Changing Tseed to 1e-09
Changing Tseed to 1e-11
Changing Tseed to 1e-08
Changing Tseed to 1e-12
Changing Tseed to 1e-07
Changing Tseed to 1e-13
Changing Tseed to 1e-06
Changing Tseed to 1e-14
Changing Tseed to 1e-05
Changing Tseed to 1e-15
Changing Tseed to 0.0001
Changing Tseed to 1e-16
+Changing Tseed to 1e-09
Changing Tseed to 1e-11
Changing Tseed to 1e-08
Changing Tseed to 1e-12
Changing Tseed to 1e-07
Changing Tseed to 1e-13
Changing Tseed to 1e-06
Changing Tseed to 1e-14
Changing Tseed to 1e-05
Changing Tseed to 1e-15
Changing Tseed to 0.0001
Changing Tseed to 1e-16
+Changing Tseed to 1e-09
Changing Tseed to 1e-11
Changing Tseed to 1e-08
Changing Tseed to 1e-12
Changing Tseed to 1e-07
Changing Tseed to 1e-13
Changing Tseed to 1e-06
Changing Tseed to 1e-14
Changing Tseed to 1e-05
Changing Tseed to 1e-15
Changing Tseed to 0.0001
Changing Tseed to 1e-16
+Changing Tseed to 1e-09
Changing Tseed to 1e-11
Changing Tseed to 1e-08
Changing Tseed to 1e-12
Changing Tseed to 1e-07
Changing Tseed to 1e-13
Changing Tseed to 1e-06
Changing Tseed to 1e-14
Changing Tseed to 1e-05
Changing Tseed to 1e-15
Changing Tseed to 0.0001
Changing Tseed to 1e-16
+Changing Tseed to 1e-09
Changing Tseed to 1e-11
Changing Tseed to 1e-08
Changing Tseed to 1e-12
Changing Tseed to 1e-07
Changing Tseed to 1e-13
Changing Tseed to 1e-06
Changing Tseed to 1e-14
Changing Tseed to 1e-05
Changing Tseed to 1e-15
Changing Tseed to 0.0001
Changing Tseed to 1e-16
+Changing Tseed to 1e-09
Changing Tseed to 1e-11
Changing Tseed to 1e-08
Changing Tseed to 1e-12
Changing Tseed to 1e-07
Changing Tseed to 1e-13
Changing Tseed to 1e-06
Changing Tseed to 1e-14
Changing Tseed to 1e-05
Changing Tseed to 1e-15
Changing Tseed to 0.0001
Changing Tseed to 1e-16
+Changing Tseed to 1e-09
Changing Tseed to 1e-11
Changing Tseed to 1e-08
Changing Tseed to 1e-12
Changing Tseed to 1e-07
Changing Tseed to 1e-13
Changing Tseed to 1e-06
Changing Tseed to 1e-14
Changing Tseed to 1e-05
Changing Tseed to 1e-15
Changing Tseed to 0.0001
Changing Tseed to 1e-16
+Changing Tseed to 1e-09
Changing Tseed to 1e-11
Changing Tseed to 1e-08
Changing Tseed to 1e-12
Changing Tseed to 1e-07
Changing Tseed to 1e-13
Changing Tseed to 1e-06
Changing Tseed to 1e-14
Changing Tseed to 1e-05
Changing Tseed to 1e-15
Changing Tseed to 0.0001
Changing Tseed to 1e-16
+Changing Tseed to 1e-09
Changing Tseed to 1e-11
Changing Tseed to 1e-08
Changing Tseed to 1e-12
Changing Tseed to 1e-07
Changing Tseed to 1e-13
Changing Tseed to 1e-06
Changing Tseed to 1e-14
Changing Tseed to 1e-05
Changing Tseed to 1e-15
Changing Tseed to 0.0001
Changing Tseed to 1e-16
+Changing Tseed to 1e-09
Changing Tseed to 1e-11
Changing Tseed to 1e-08
Changing Tseed to 1e-12
Changing Tseed to 1e-07
Changing Tseed to 1e-13
Changing Tseed to 1e-06
Changing Tseed to 1e-14
Changing Tseed to 1e-05
Changing Tseed to 1e-15
Changing Tseed to 0.0001
Changing Tseed to 1e-16
+Changing Tseed to 1e-09
Changing Tseed to 1e-11
Changing Tseed to 1e-08
Changing Tseed to 1e-12
Changing Tseed to 1e-07
Changing Tseed to 1e-13
Changing Tseed to 1e-06
Changing Tseed to 1e-14
Changing Tseed to 1e-05
Changing Tseed to 1e-15
Changing Tseed to 0.0001
Changing Tseed to 1e-16
+Changing Tseed to 1e-09
Changing Tseed to 1e-11
Changing Tseed to 1e-08
Changing Tseed to 1e-12
Changing Tseed to 1e-07
Changing Tseed to 1e-13
Changing Tseed to 1e-06
Changing Tseed to 1e-14
Changing Tseed to 1e-05
Changing Tseed to 1e-15
Changing Tseed to 0.0001
Changing Tseed to 1e-16
+Changing Tseed to 1e-09
Changing Tseed to 1e-11
Changing Tseed to 1e-08
Changing Tseed to 1e-12
Changing Tseed to 1e-07
Changing Tseed to 1e-13
Changing Tseed to 1e-06
Changing Tseed to 1e-14
Changing Tseed to 1e-05
Changing Tseed to 1e-15
Changing Tseed to 0.0001
Changing Tseed to 1e-16
+Changing Tseed to 1e-09
Changing Tseed to 1e-11
Changing Tseed to 1e-08
Changing Tseed to 1e-12
Changing Tseed to 1e-07
Changing Tseed to 1e-13
Changing Tseed to 1e-06
Changing Tseed to 1e-14
Changing Tseed to 1e-05
Changing Tseed to 1e-15
Changing Tseed to 0.0001
Changing Tseed to 1e-16
+Changing Tseed to 1e-09
Changing Tseed to 1e-11
Changing Tseed to 1e-08
Changing Tseed to 1e-12
Changing Tseed to 1e-07
Changing Tseed to 1e-13
Changing Tseed to 1e-06
Changing Tseed to 1e-14
Changing Tseed to 1e-05
Changing Tseed to 1e-15
Changing Tseed to 0.0001
Changing Tseed to 1e-16
+Changing Tseed to 1e-09
Changing Tseed to 1e-11
Changing Tseed to 1e-08
Changing Tseed to 1e-12
Changing Tseed to 1e-07
Changing Tseed to 1e-13
Changing Tseed to 1e-06
Changing Tseed to 1e-14
Changing Tseed to 1e-05
Changing Tseed to 1e-15
Changing Tseed to 0.0001
Changing Tseed to 1e-16
+Changing Tseed to 1e-09
Changing Tseed to 1e-11
Changing Tseed to 1e-08
Changing Tseed to 1e-12
Changing Tseed to 1e-07
Changing Tseed to 1e-13
Changing Tseed to 1e-06
Changing Tseed to 1e-14
Changing Tseed to 1e-05
Changing Tseed to 1e-15
Changing Tseed to 0.0001
Changing Tseed to 1e-16
+Changing Tseed to 1e-09
Changing Tseed to 1e-11
Changing Tseed to 1e-08
Changing Tseed to 1e-12
Changing Tseed to 1e-07
Changing Tseed to 1e-13
Changing Tseed to 1e-06
Changing Tseed to 1e-14
Changing Tseed to 1e-05
Changing Tseed to 1e-15
Changing Tseed to 0.0001
Changing Tseed to 1e-16
+Changing Tseed to 1e-09
Changing Tseed to 1e-11
Changing Tseed to 1e-08
Changing Tseed to 1e-12
Changing Tseed to 1e-07
Changing Tseed to 1e-13
Changing Tseed to 1e-06
Changing Tseed to 1e-14
Changing Tseed to 1e-05
Changing Tseed to 1e-15
Changing Tseed to 0.0001
Changing Tseed to 1e-16
+Changing Tseed to 1e-09
Changing Tseed to 1e-11
Changing Tseed to 1e-08
Changing Tseed to 1e-12
Changing Tseed to 1e-07
Changing Tseed to 1e-13
Changing Tseed to 1e-06
Changing Tseed to 1e-14
Changing Tseed to 1e-05
Changing Tseed to 1e-15
Changing Tseed to 0.0001
Changing Tseed to 1e-16
+Changing Tseed to 1e-09
Changing Tseed to 1e-11
Changing Tseed to 1e-08
Changing Tseed to 1e-12
Changing Tseed to 1e-07
Changing Tseed to 1e-13
Changing Tseed to 1e-06
Changing Tseed to 1e-14
Changing Tseed to 1e-05
Changing Tseed to 1e-15
Changing Tseed to 0.0001
Changing Tseed to 1e-16
+Changing Tseed to 1e-09
Changing Tseed to 1e-11
Changing Tseed to 1e-08
Changing Tseed to 1e-12
Changing Tseed to 1e-07
Changing Tseed to 1e-13
Changing Tseed to 1e-06
Changing Tseed to 1e-14
Changing Tseed to 1e-05
Changing Tseed to 1e-15
Changing Tseed to 0.0001
Changing Tseed to 1e-16
+Changing Tseed to 1e-09
Changing Tseed to 1e-11
Changing Tseed to 1e-08
Changing Tseed to 1e-12
Changing Tseed to 1e-07
Changing Tseed to 1e-13
Changing Tseed to 1e-06
Changing Tseed to 1e-14
Changing Tseed to 1e-05
Changing Tseed to 1e-15
Changing Tseed to 0.0001
Changing Tseed to 1e-16
+Changing Tseed to 1e-09
Changing Tseed to 1e-11
Changing Tseed to 1e-08
Changing Tseed to 1e-12
Changing Tseed to 1e-07
Changing Tseed to 1e-13
Changing Tseed to 1e-06
Changing Tseed to 1e-14
Changing Tseed to 1e-05
Changing Tseed to 1e-15
Changing Tseed to 0.0001
Changing Tseed to 1e-16
+Changing Tseed to 1e-09
Changing Tseed to 1e-11
Changing Tseed to 1e-08
Changing Tseed to 1e-12
Changing Tseed to 1e-07
Changing Tseed to 1e-13
Changing Tseed to 1e-06
Changing Tseed to 1e-14
Changing Tseed to 1e-05
Changing Tseed to 1e-15
Changing Tseed to 0.0001
Changing Tseed to 1e-16
+Changing Tseed to 1e-09
Changing Tseed to 1e-11
Changing Tseed to 1e-08
Changing Tseed to 1e-12
Changing Tseed to 1e-07
Changing Tseed to 1e-13
Changing Tseed to 1e-06
Changing Tseed to 1e-14
Changing Tseed to 1e-05
Changing Tseed to 1e-15
Changing Tseed to 0.0001
Changing Tseed to 1e-16
+Changing Tseed to 1e-09
Changing Tseed to 1e-11
to 1.125e-11
Heightened Def Con from 1.125e-11 ++++++++++++++++++++++++++to 1.73535e-11
Heightened Def Con from 1.73535e-11 +++++++++++++++++++++to 1.75061e-11
Heightened Def Con from 1.75061e-11 ++++++++++++++++++to 1.75371e-11
Heightened Def Con from 5.00097e-05 to 5.00098e-05
Heightened Def Con from 5.53056e-05 to 5.53057e-05
Heightened Def Con from 5.65363e-05 to 5.65367e-05
Heightened Def Con from 6.05412e-05 to 6.05414e-05
Heightened Def Con from 6.12852e-05 to 6.13002e-05
Heightened Def Con from 6.54447e-05 to 6.54448e-05
Heightened Def Con from 7.00791e-05 to 7.00793e-05
Heightened Def Con from 7.45643e-05 to 7.45654e-05
Heightened Def Con from 7.89866e-05 to 7.8987e-05
Heightened Def Con from 7.90092e-05 to 7.90322e-05
Heightened Def Con from 7.90349e-05 to 7.9035e-05
Heightened Def Con from 8.35766e-05 to 8.3577e-05
Heightened Def Con from 8.36254e-05 to 8.36256e-05
Heightened Def Con from 8.36352e-05 to 8.36442e-05
Heightened Def Con from 8.78437e-05 to 8.78597e-05
Heightened Def Con from 8.84125e-05 to 8.84129e-05
Heightened Def Con from 8.84615e-05 to 8.84616e-05
Heightened Def Con from 8.84714e-05 to 8.84804e-05
Heightened Def Con from 9.25997e-05 to 9.26097e-05
Heightened Def Con from 9.35758e-05 to 9.35762e-05
Heightened Def Con from 9.36249e-05 to 9.36251e-05
Heightened Def Con from 9.36347e-05 to 9.36437e-05
Heightened Def Con from 9.70865e-05 to 9.71025e-05
Heightened Def Con from 9.90684e-05 to 9.90695e-05
Heightened Def Con from 0.000101492 to 0.000101502
Heightened Def Con from 0.000104565 to 0.000104565
Heightened Def Con from 0.000109843 to 0.000109843
Heightened Def Con from 0.000114792 to 0.000114792
Heightened Def Con from 0.000115568 to 0.000115576
Heightened Def Con from 0.000119456 to 0.000119456
Heightened Def Con from 0.000120912 to 0.000120927
Heightened Def Con from 0.000123954 to 0.000123954
Heightened Def Con from 0.000128419 to 0.000128419
Heightened Def Con from 0.00013202 to 0.000132031
Heightened Def Con from 0.000132936 to 0.000132936
Heightened Def Con from 0.000132985 to 0.000132985
Heightened Def Con from 0.000132995 to 0.000133004
Heightened Def Con from 0.000137167 to 0.000137168
Heightened Def Con from 0.000137732 to 0.000137732
Heightened Def Con from 0.000137754 to 0.000137754
Heightened Def Con from 0.000137774 to 0.000137779
Heightened Def Con from 0.000137781 to 0.000137781
Heightened Def Con from 0.000137791 to 0.000137798
Heightened Def Con from 0.000141955 to 0.000141956
Heightened Def Con from 0.000142849 to 0.000142849
Heightened Def Con from 0.000142891 to 0.000142896
Heightened Def Con from 0.000142898 to 0.000142898
Heightened Def Con from 0.000142909 to 0.000142916
Heightened Def Con from 0.00014648 to 0.00014648
Heightened Def Con from 0.000148264 to 0.000148265
Heightened Def Con from 0.000148287 to 0.000148311
Heightened Def Con from 0.000148313 to 0.000148313
Heightened Def Con from 0.000150885 to 0.000150885
Heightened Def Con from 0.000150886 to 0.000150886
Heightened Def Con from 0.000153771 to 0.000153771
Heightened Def Con from 0.000153793 to 0.000153794
Heightened Def Con from 0.00015382 to 0.00015382
Heightened Def Con from 0.000155315 to 0.00015532
Heightened Def Con from 0.00015532 to 0.000155321
Heightened Def Con from 0.000159091 to 0.000159091
Heightened Def Con from 0.000159139 to 0.000159139
Heightened Def Con from 0.000159929 to 0.00015993
Heightened Def Con from 0.00015994 to 0.000159946
Heightened Def Con from 0.000164084 to 0.000164084
Heightened Def Con from 0.000164106 to 0.000164125
Heightened Def Con from 0.000164132 to 0.000164132
Heightened Def Con from 0.000164823 to 0.000164823
Heightened Def Con from 0.000164849 to 0.000164849
Heightened Def Con from 0.00016486 to 0.000164866
Heightened Def Con from 0.000168781 to 0.000168781
Heightened Def Con from 0.000168803 to 0.000168803
Heightened Def Con from 0.00016883 to 0.00016883
Heightened Def Con from 0.000170153 to 0.000170153
Heightened Def Con from 0.000170165 to 0.000170175
Heightened Def Con from 0.000173294 to 0.000173295
Heightened Def Con from 0.00017334 to 0.000173342
Heightened Def Con from 0.000173343 to 0.000173343
Heightened Def Con from 0.000175734 to 0.000175734
Heightened Def Con from 0.000177755 to 0.000177756
Heightened Def Con from 0.000177778 to 0.000177778
Heightened Def Con from 0.000177804 to 0.000177805
Heightened Def Con from 0.000177807 to 0.000177826
Heightened Def Con from 0.000181267 to 0.000181269
Heightened Def Con from 0.000181271 to 0.000181271
Heightened Def Con from 0.0001823 to 0.0001823
Heightened Def Con from 0.000182349 to 0.000182349
Heightened Def Con from 0.000182359 to 0.00018237
Heightened Def Con from 0.00018648 to 0.000186482
Heightened Def Con from 0.000186483 to 0.000186483
Heightened Def Con from 0.000187057 to 0.000187057
Heightened Def Con from 0.000187099 to 0.000187104
Heightened Def Con from 0.000187106 to 0.000187106
Heightened Def Con from 0.000187116 to 0.000187123
Heightened Def Con from 0.000191313 to 0.000191315
Heightened Def Con from 0.000191317 to 0.000191318
Heightened Def Con from 0.000192128 to 0.000192129
Heightened Def Con from 0.00019215 to 0.00019215
Heightened Def Con from 0.000192173 to 0.000192176
Heightened Def Con from 0.000192177 to 0.000192177
Heightened Def Con from 0.000192188 to 0.000192195
Heightened Def Con from 0.000195843 to 0.000195843
Heightened Def Con from 0.00019587 to 0.00019587
Heightened Def Con from 0.000197511 to 0.000197511
Heightened Def Con from 0.000197553 to 0.000197559
Heightened Def Con from 0.00019756 to 0.00019756
Heightened Def Con from 0.00019757 to 0.000197581
Heightened Def Con from 0.000200281 to 0.000200282
Heightened Def Con from 0.000200284 to 0.000200284
Heightened Def Con from 0.000203022 to 0.000203022
Heightened Def Con from 0.000203045 +to 0.000203045
Heightened Def Con from 0.000203045 to 0.000203045
Heightened Def Con from 0.000203071 to 0.000203072
Heightened Def Con from 0.000204701 to 0.000204704
Heightened Def Con from 0.000204705 to 0.000204705
Heightened Def Con from 0.00020838 to 0.00020838
Heightened Def Con from 0.000208425 to 0.000208427
Heightened Def Con from 0.000208429 to 0.00020843
Heightened Def Con from 0.000209281 to 0.000209281
Heightened Def Con from 0.000209293 to 0.000209299
Heightened Def Con from 0.000213419 to 0.000213419
Heightened Def Con from 0.000213468 to 0.000213469
Heightened Def Con from 0.000214152 to 0.000214152
Heightened Def Con from 0.000214163 to 0.000214169
Heightened Def Con from 0.000218151 to 0.000218152
Heightened Def Con from 0.000218174 to 0.000218175
Heightened Def Con from 0.0002182 to 0.0002182
Heightened Def Con from 0.000219404 to 0.000219404
Heightened Def Con from 0.000219416 to 0.000219426
Heightened Def Con from 0.000222682 to 0.000222682
Heightened Def Con from 0.000222728 to 0.00022273
Heightened Def Con from 0.000222731 to 0.000222731
Heightened Def Con from 0.000224962 to 0.000224962
Heightened Def Con from 0.000227143 to 0.000227144
Heightened Def Con from 0.000227165 to 0.000227165
Heightened Def Con from 0.000227165 to 0.000227187
Heightened Def Con from 0.000227191 to 0.000227191
Heightened Def Con from 0.000227192 to 0.000227212
Heightened Def Con from 0.000230523 to 0.000230525
Heightened Def Con from 0.000230526 to 0.000230526
Heightened Def Con from 0.000231667 to 0.000231668
Heightened Def Con from 0.00023171 to 0.000231716
Heightened Def Con from 0.000231717 to 0.000231718
Heightened Def Con from 0.000231727 to 0.000231738
Heightened Def Con from 0.000235765 to 0.000235765
Heightened Def Con from 0.000235792 to 0.000235792
Heightened Def Con from 0.000236389 to 0.000236389
Heightened Def Con from 0.000236433 to 0.000236436
Heightened Def Con from 0.000236437 to 0.000236438
Heightened Def Con from 0.000236448 to 0.000236455
Heightened Def Con from 0.000240673 to 0.000240674
Heightened Def Con from 0.000241414 to 0.000241414
Heightened Def Con from 0.000241458 to 0.000241461
Heightened Def Con from 0.000241462 to 0.000241463
Heightened Def Con from 0.000241473 to 0.000241481
Heightened Def Con from 0.000245257 to 0.000245257
Heightened Def Con from 0.00024676 to 0.00024676
Heightened Def Con from 0.000246809 to 0.000246809
Heightened Def Con from 0.000246819 to 0.000246825
Heightened Def Con from 0.000249681 to 0.000249681
Heightened Def Con from 0.000252271 to 0.000252271
Heightened Def Con from 0.000252319 to 0.000252319
Heightened Def Con from 0.00025232 to 0.00025232
Heightened Def Con from 0.000254093 to 0.000254093
Heightened Def Con from 0.000257664 to 0.000257664
Heightened Def Con from 0.000257709 to 0.000257711
Heightened Def Con from 0.000257713 to 0.000257713
Heightened Def Con from 0.000258639 to 0.00025864
Heightened Def Con from 0.00025865 to 0.000258656
Heightened Def Con from 0.000262749 to 0.00026275
Heightened Def Con from 0.000262798 to 0.000262798
Heightened Def Con from 0.000263462 to 0.000263462
Heightened Def Con from 0.000263473 to 0.000263479
Heightened Def Con from 0.000267518 to 0.000267518
Heightened Def Con from 0.000267541 to 0.000267565
Heightened Def Con from 0.000267566 to 0.000267567
Heightened Def Con from 0.000268661 to 0.000268662
Heightened Def Con from 0.000268673 to 0.000268679
Heightened Def Con from 0.000272068 to 0.000272069
Heightened Def Con from 0.000272091 to 0.000272091
Heightened Def Con from 0.000272117 to 0.000272118
Heightened Def Con from 0.000274191 to 0.000274191
Heightened Def Con from 0.000276531 to 0.000276531
Heightened Def Con from 0.000276553 to 0.000276553
Heightened Def Con from 0.000276554 to 0.000276555
Heightened Def Con from 0.00027658 to 0.000276581
Heightened Def Con from 0.00027975 to 0.00027975
Heightened Def Con from 0.000279767 to 0.000279771
Heightened Def Con from 0.000279775 to 0.000279776
Heightened Def Con from 0.000281039 to 0.000281039
Heightened Def Con from 0.000281088 to 0.000281088
Heightened Def Con from 0.000281098 to 0.000281109
Heightened Def Con from 0.000285089 to 0.000285092
Heightened Def Con from 0.000285093 to 0.000285093
Heightened Def Con from 0.000285726 to 0.000285726
Heightened Def Con from 0.000285748 +to 0.000285748
Heightened Def Con from 0.000285768 to 0.000285773
Heightened Def Con from 0.000285775 to 0.000285775
Heightened Def Con from 0.000285785 to 0.000285792
Heightened Def Con from 0.000290021 to 0.000290023
Heightened Def Con from 0.000290024 to 0.000290024
Heightened Def Con from 0.000290705 to 0.000290705
Heightened Def Con from 0.000290728 to 0.000290729
Heightened Def Con from 0.000290754 to 0.000290754
Heightened Def Con from 0.000290765 to 0.000290772
Heightened Def Con from 0.000294637 to 0.000294639
Heightened Def Con from 0.000294641 to 0.000294642
Heightened Def Con from 0.000296012 to 0.000296012
Heightened Def Con from 0.000296054 to 0.00029606
Heightened Def Con from 0.00029606 to 0.000296061
Heightened Def Con from 0.000296071 to 0.000296082
Heightened Def Con from 0.000299077 to 0.000299077
Heightened Def Con from 0.000301516 to 0.000301516
Heightened Def Con from 0.000301564 to 0.000301564
Heightened Def Con from 0.000301566 to 0.000301586
Heightened Def Con from 0.000303482 to 0.000303482
Heightened Def Con from 0.00030694 to 0.00030694
Heightened Def Con from 0.000306963 +to 0.000306963
Heightened Def Con from 0.000306963 to 0.000306963
Heightened Def Con from 0.000306989 to 0.000306989
Heightened Def Con from 0.000308001 to 0.000308001
Heightened Def Con from 0.000308012 to 0.000308022
Heightened Def Con from 0.000312072 to 0.000312072
Heightened Def Con from 0.000312093 to 0.000312095
Heightened Def Con from 0.00031212 to 0.000312121
Heightened Def Con from 0.000312778 to 0.000312778
Heightened Def Con from 0.000312789 to 0.000312795
Heightened Def Con from 0.000316879 to 0.00031688
Heightened Def Con from 0.000316925 to 0.000316927
Heightened Def Con from 0.000316928 to 0.000316928
Heightened Def Con from 0.000317924 to 0.000317924
Heightened Def Con from 0.000317936 to 0.000317942
Heightened Def Con from 0.000321453 to 0.000321453
Heightened Def Con from 0.000321476 to 0.000321476
Heightened Def Con from 0.000321476 to 0.000321476
Heightened Def Con from 0.000321502 to 0.000321502
Heightened Def Con from 0.00032342 to 0.00032342
Heightened Def Con from 0.000325919 to 0.00032592
Heightened Def Con from 0.000325942 to 0.000325942
Heightened Def Con from 0.000325942 +to 0.000325942
Heightened Def Con from 0.000325942 to 0.000325942
Heightened Def Con from 0.000325943 to 0.000325943
Heightened Def Con from 0.000325968 to 0.000325968
Heightened Def Con from 0.000329016 to 0.000329017
Heightened Def Con from 0.000329019 to 0.00032902
Heightened Def Con from 0.000330413 to 0.000330413
Heightened Def Con from 0.000330462 to 0.000330463
Heightened Def Con from 0.000334381 to 0.000334383
Heightened Def Con from 0.000334384 to 0.000334384
Heightened Def Con from 0.000335068 to 0.000335068
Heightened Def Con from 0.00033511 to 0.000335116
Heightened Def Con from 0.000335117 to 0.000335117
Heightened Def Con from 0.000335128 to 0.000335135
Heightened Def Con from 0.000339365 to 0.000339367
Heightened Def Con from 0.000339368 to 0.000339368
Heightened Def Con from 0.000340002 to 0.000340003
Heightened Def Con from 0.000340051 to 0.000340051
Heightened Def Con from 0.000340062 to 0.000340069
Heightened Def Con from 0.000344017 to 0.000344019
Heightened Def Con from 0.00034402 to 0.00034402
Heightened Def Con from 0.000345268 to 0.000345268
Heightened Def Con from 0.00034529 to 0.000345296
Heightened Def Con from 0.000345316 to 0.000345316
Heightened Def Con from 0.000345327 to 0.000345335
Heightened Def Con from 0.000348473 to 0.000348474
Heightened Def Con from 0.000350759 to 0.00035076
Heightened Def Con from 0.000350808 to 0.000350808
Heightened Def Con from 0.000350812 to 0.000350831
Heightened Def Con from 0.000352874 to 0.000352874
Heightened Def Con from 0.000352878 to 0.000352896
Heightened Def Con from 0.000356211 to 0.000356211
Heightened Def Con from 0.000356234 to 0.000356234
Heightened Def Con from 0.00035626 to 0.000356261
Heightened Def Con from 0.000357368 to 0.000357369
Heightened Def Con from 0.00035738 to 0.00035739
Heightened Def Con from 0.000361389 to 0.00036139
Heightened Def Con from 0.000361412 to 0.000361413
Heightened Def Con from 0.000361435 to 0.000361437
Heightened Def Con from 0.000361438 to 0.000361439
Heightened Def Con from 0.000362103 to 0.000362103
Heightened Def Con from 0.000362114 to 0.00036212
Heightened Def Con from 0.000366238 to 0.000366238
Heightened Def Con from 0.000366261 to 0.000366261
Heightened Def Con from 0.000366287 to 0.000366287
Heightened Def Con from 0.000367195 to 0.000367196
Heightened Def Con from 0.000367207 to 0.000367213
Heightened Def Con from 0.000370836 to 0.000370837
Heightened Def Con from 0.000370882 to 0.000370884
Heightened Def Con from 0.000370885 to 0.000370885
Heightened Def Con from 0.000372647 to 0.000372652
Heightened Def Con from 0.000372653 to 0.000372653
Heightened Def Con from 0.000372665 to 0.000372675
Heightened Def Con from 0.00037531 to 0.00037531
Heightened Def Con from 0.000375356 to 0.000375358
Heightened Def Con from 0.000375359 to 0.000375359
Heightened Def Con from 0.000378257 to 0.000378257
Heightened Def Con from 0.000378259 to 0.000378259
Heightened Def Con from 0.000379792 to 0.000379792
Heightened Def Con from 0.000379841 to 0.000379842
Heightened Def Con from 0.000383668 to 0.00038367
Heightened Def Con from 0.000383671 to 0.000383671
Heightened Def Con from 0.000384417 to 0.000384417
Heightened Def Con from 0.00038444 to 0.000384463
Heightened Def Con from 0.000384465 to 0.000384465
Heightened Def Con from 0.000384476 to 0.000384483
Heightened Def Con from 0.000388707 to 0.000388707
Heightened Def Con from 0.000389307 to 0.000389307
Heightened Def Con from 0.000389351 to 0.000389354
Heightened Def Con from 0.000389356 to 0.000389356
Heightened Def Con from 0.000389367 to 0.000389374
Heightened Def Con from 0.000393398 to 0.000393398
Heightened Def Con from 0.000394529 to 0.000394529
Heightened Def Con from 0.000394571 to 0.000394577
Heightened Def Con from 0.000394578 to 0.000394578
Heightened Def Con from 0.000394588 to 0.000394596
Heightened Def Con from 0.000397866 to 0.000397868
Heightened Def Con from 0.000397869 to 0.000397869
Heightened Def Con from 0.000400003 to 0.000400004
Heightened Def Con from 0.000400052 to 0.000400052
Heightened Def Con from 0.000402268 to 0.000402268
Heightened Def Con from 0.000405477 to 0.000405478
Heightened Def Con from 0.000405523 to 0.000405525
Heightened Def Con from 0.000405526 to 0.000405527
Heightened Def Con from 0.000406741 to 0.000406741
Heightened Def Con from 0.000406753 to 0.000406763
Heightened Def Con from 0.0004107 to 0.0004107
Heightened Def Con from 0.000410722 to 0.000410722
Heightened Def Con from 0.000410722 to 0.000410722
Heightened Def Con from 0.000410722 to 0.000410722
Heightened Def Con from 0.000410745 to 0.000410747
Heightened Def Con from 0.000410749 to 0.000410749
Heightened Def Con from 0.000411434 to 0.000411434
Heightened Def Con from 0.000411445 to 0.000411451
Heightened Def Con from 0.000415591 to 0.000415591
Heightened Def Con from 0.00041564 to 0.000415641
Heightened Def Con from 0.000416473 to 0.000416473
Heightened Def Con from 0.000416484 to 0.00041649
Heightened Def Con from 0.000420216 to 0.000420217
Heightened Def Con from 0.000420239 to 0.000420263
Heightened Def Con from 0.000420264 to 0.000420265
Heightened Def Con from 0.000421882 to 0.000421886
Heightened Def Con from 0.000421887 to 0.000421887
Heightened Def Con from 0.000421899 to 0.000421908
Heightened Def Con from 0.000424698 to 0.000424699
Heightened Def Con from 0.000424744 to 0.000424746
Heightened Def Con from 0.000424747 to 0.000424747
Heightened Def Con from 0.000427493 to 0.000427493
Heightened Def Con from 0.000429171 to 0.000429172
Heightened Def Con from 0.00042922 to 0.000429221
Heightened Def Con from 0.000432949 to 0.000432949
Heightened Def Con from 0.000433769 to 0.00043377
Heightened Def Con from 0.000433811 to 0.000433817
Heightened Def Con from 0.000433818 to 0.000433818
Heightened Def Con from 0.000433829 to 0.000433837
Heightened Def Con from 0.000438039 to 0.000438039
Heightened Def Con from 0.000438618 to 0.000438618
Heightened Def Con from 0.000438667 to 0.000438667
Heightened Def Con from 0.000438677 to 0.000438684
Heightened Def Con from 0.00044277 to 0.000442771
Heightened Def Con from 0.000443795 to 0.000443795
Heightened Def Con from 0.000443837 to 0.000443843
Heightened Def Con from 0.000443843 to 0.000443844
Heightened Def Con from 0.000443854 to 0.000443862
Heightened Def Con from 0.000447263 to 0.000447263
Heightened Def Con from 0.000449246 to 0.000449247
Heightened Def Con from 0.000449269 to 0.000449289
Heightened Def Con from 0.000449295 to 0.000449295
Heightened Def Con from 0.000451637 to 0.000451637
Heightened Def Con from 0.000451663 to 0.000451664
Heightened Def Con from 0.000451664 to 0.000451686
Heightened Def Con from 0.000454738 to 0.000454739
Heightened Def Con from 0.000454761 to 0.000454761
Heightened Def Con from 0.000454787 to 0.000454787
Heightened Def Con from 0.000456092 to 0.000456092
Heightened Def Con from 0.000456112 to 0.000456117
Heightened Def Con from 0.000456118 to 0.000456118
Heightened Def Con from 0.000456129 to 0.000456138
Heightened Def Con from 0.000460004 to 0.000460005
Heightened Def Con from 0.000460027 to 0.000460027
Heightened Def Con from 0.000460027 to 0.000460027
Heightened Def Con from 0.000460028 to 0.000460028
Heightened Def Con from 0.000460053 to 0.000460054
Heightened Def Con from 0.000460772 to 0.000460772
Heightened Def Con from 0.000460784 to 0.00046079
Heightened Def Con from 0.000464939 to 0.000464939
Heightened Def Con from 0.000464988 to 0.000464988
Heightened Def Con from 0.000465758 to 0.000465758
Heightened Def Con from 0.00046577 to 0.000465776
Heightened Def Con from 0.000469594 to 0.000469594
Heightened Def Con from 0.000469617 to 0.000469618
Heightened Def Con from 0.000469639 to 0.000469641
Heightened Def Con from 0.000469643 to 0.000469643
Heightened Def Con from 0.000471101 to 0.000471101
Heightened Def Con from 0.000471126 to 0.000471126
Heightened Def Con from 0.000471138 to 0.000471148
Heightened Def Con from 0.000474088 to 0.000474088
Heightened Def Con from 0.000474111 to 0.000474111
Heightened Def Con from 0.000474133 to 0.000474136
Heightened Def Con from 0.000474137 to 0.000474137
Heightened Def Con from 0.000476726 to 0.000476726
Heightened Def Con from 0.000478555 to 0.000478556
Heightened Def Con from 0.000478603 to 0.000478603
Heightened Def Con from 0.00048222 to 0.00048222
Heightened Def Con from 0.000483128 to 0.000483128
Heightened Def Con from 0.00048317 to 0.000483176
Heightened Def Con from 0.000483177 to 0.000483177
Heightened Def Con from 0.000483187 to 0.000483195
Heightened Def Con from 0.00048736 to 0.000487362
Heightened Def Con from 0.000487363 to 0.000487364
Heightened Def Con from 0.000487935 to 0.000487935
Heightened Def Con from 0.000487984 to 0.000487984
Heightened Def Con from 0.000487995 to 0.000488002
Heightened Def Con from 0.000492138 to 0.000492139
Heightened Def Con from 0.000493066 to 0.000493066
Heightened Def Con from 0.000493089 to 0.000493089
Heightened Def Con from 0.000493108 to 0.000493114
Heightened Def Con from 0.000493115 to 0.000493116
Heightened Def Con from 0.000493126 to 0.000493135
Heightened Def Con from 0.000496629 to 0.000496629
Heightened Def Con from 0.000496656 to 0.000496656
Heightened Def Con from 0.00049849 to 0.000498491
Heightened Def Con from 0.000498532 to 0.000498538
Heightened Def Con from 0.000498539 to 0.000498539
Heightened Def Con from 0.000501059 to 0.000501059
Heightened Def Con from 0.000501059 to 0.000501059
Heightened Def Con from 0.00050106 to 0.00050106
Heightened Def Con from 0.000503994 to 0.000503995
Heightened Def Con from 0.000504043 to 0.000504043
Heightened Def Con from 0.000505492 to 0.000505497
Heightened Def Con from 0.000505498 to 0.000505498
Heightened Def Con from 0.000505509 to 0.000505519
Heightened Def Con from 0.000509302 to 0.000509302
Heightened Def Con from 0.000509351 to 0.000509352
Heightened Def Con from 0.000510116 to 0.000510116
Heightened Def Con from 0.000510128 to 0.000510134
Heightened Def Con from 0.000514281 to 0.000514282
Heightened Def Con from 0.000514304 to 0.000514305
Heightened Def Con from 0.00051433 to 0.00051433
Heightened Def Con from 0.000515051 to 0.000515051
Heightened Def Con from 0.000515063 to 0.000515069
Heightened Def Con from 0.000518969 to 0.000518969
Heightened Def Con from 0.000518991 to 0.000518992
Heightened Def Con from 0.000519018 to 0.000519018
Heightened Def Con from 0.00052037 to 0.00052037
Heightened Def Con from 0.000520382 to 0.000520392
Heightened Def Con from 0.000523477 to 0.000523478
Heightened Def Con from 0.0005235 +to 0.0005235
Heightened Def Con from 0.0005235 to 0.0005235
Heightened Def Con from 0.000523523 to 0.000523525
Heightened Def Con from 0.000523526 to 0.000523527
Heightened Def Con from 0.000525955 to 0.000525956
Heightened Def Con from 0.000525959 to 0.000525977
Heightened Def Con from 0.000527939 to 0.00052794
Heightened Def Con from 0.000527988 to 0.000527988
Heightened Def Con from 0.000527991 to 0.000528009
Heightened Def Con from 0.000531481 to 0.000531483
Heightened Def Con from 0.000531484 to 0.000531484
Heightened Def Con from 0.00053249 to 0.00053249
Heightened Def Con from 0.000532532 to 0.000532538
Heightened Def Con from 0.000532538 to 0.000532539
Heightened Def Con from 0.000532549 to 0.000532557
Heightened Def Con from 0.000536681 to 0.000536681
Heightened Def Con from 0.000537259 to 0.000537259
Heightened Def Con from 0.000537281 to 0.000537281
Heightened Def Con from 0.000537303 to 0.000537306
Heightened Def Con from 0.000537307 to 0.000537308
Heightened Def Con from 0.000537318 to 0.000537325
Heightened Def Con from 0.000541501 to 0.000541501
Heightened Def Con from 0.000542343 to 0.000542343
Heightened Def Con from 0.000542366 to 0.000542389
Heightened Def Con from 0.000542391 to 0.000542391
Heightened Def Con from 0.000542402 to 0.00054241
Heightened Def Con from 0.000546042 to 0.000546044
Heightened Def Con from 0.000546046 to 0.000546047
Heightened Def Con from 0.000547778 to 0.000547784
Heightened Def Con from 0.000547785 to 0.000547786
Heightened Def Con from 0.000547796 to 0.0005478
Heightened Def Con from 0.000550456 to 0.000550457
Heightened Def Con from 0.000553246 to 0.000553247
Heightened Def Con from 0.000553295 to 0.000553295
Heightened Def Con from 0.000554878 to 0.000554881
Heightened Def Con from 0.000554882 to 0.000554882
Heightened Def Con from 0.000558593 to 0.000558594
Heightened Def Con from 0.000558615 to 0.000558615
Heightened Def Con from 0.000558615 to 0.000558616
Heightened Def Con from 0.000558638 to 0.00055864
Heightened Def Con from 0.000558642 to 0.000558642
Heightened Def Con from 0.000559466 to 0.000559467
Heightened Def Con from 0.000559478 to 0.000559484
Heightened Def Con from 0.000563619 to 0.000563619
Heightened Def Con from 0.000563641 to 0.000563641
Heightened Def Con from 0.000563642 to 0.000563642
Heightened Def Con from 0.000563668 to 0.000563669
Heightened Def Con from 0.000564351 to 0.000564351
Heightened Def Con from 0.000564363 to 0.000564369
Heightened Def Con from 0.00056834 to 0.00056834
Heightened Def Con from 0.000568363 to 0.000568387
Heightened Def Con from 0.000568388 to 0.000568389
Heightened Def Con from 0.000569619 to 0.000569619
Heightened Def Con from 0.000569631 to 0.000569641
Heightened Def Con from 0.000572865 to 0.000572865
Heightened Def Con from 0.00057291 to 0.000572912
Heightened Def Con from 0.000572914 to 0.000572914
Heightened Def Con from 0.000575158 to 0.000575158
Heightened Def Con from 0.000575183 to 0.000575184
Heightened Def Con from 0.000577325 to 0.000577326
Heightened Def Con from 0.000577348 to 0.000577349
Heightened Def Con from 0.000577374 to 0.000577374
Heightened Def Con from 0.000577375 to 0.000577396
Heightened Def Con from 0.00058074 to 0.000580741
Heightened Def Con from 0.000581856 to 0.000581856
Heightened Def Con from 0.000581878 to 0.000581878
Heightened Def Con from 0.000581879 to 0.000581902
Heightened Def Con from 0.000581904 to 0.000581904
Heightened Def Con from 0.000581915 to 0.000581921
Heightened Def Con from 0.000585991 to 0.000585991
Heightened Def Con from 0.000586587 to 0.000586588
Heightened Def Con from 0.000586629 to 0.000586636
Heightened Def Con from 0.000586636 to 0.000586636
Heightened Def Con from 0.000586647 to 0.000586654
Heightened Def Con from 0.000590859 to 0.000590859
Heightened Def Con from 0.000591626 to 0.000591626
Heightened Def Con from 0.000591668 to 0.000591673
Heightened Def Con from 0.000591675 to 0.000591675
Heightened Def Con from 0.000591685 to 0.000591692
Heightened Def Con from 0.000595433 to 0.000595433
Heightened Def Con from 0.000596984 to 0.000596984
Heightened Def Con from 0.000597025 to 0.000597026
Heightened Def Con from 0.000597028 to 0.000597032
Heightened Def Con from 0.000597033 to 0.000597033
Heightened Def Con from 0.000597043 to 0.000597055
Heightened Def Con from 0.000599851 to 0.000599852
Heightened Def Con from 0.000599854 to 0.000599855
Heightened Def Con from 0.000602495 to 0.000602495
Heightened Def Con from 0.000602543 to 0.000602543
Heightened Def Con from 0.000602544 to 0.000602544
Heightened Def Con from 0.000604268 to 0.000604269
Heightened Def Con from 0.000607878 to 0.000607878
Heightened Def Con from 0.0006079 to 0.0006079
Heightened Def Con from 0.0006079 to 0.0006079
Heightened Def Con from 0.000607923 to 0.000607925
Heightened Def Con from 0.000607927 to 0.000607927
Heightened Def Con from 0.000608796 to 0.000608797
Heightened Def Con from 0.000608822 to 0.000608823
Heightened Def Con from 0.000608834 to 0.00060884
Heightened Def Con from 0.000612949 to 0.00061295
Heightened Def Con from 0.000612972 to 0.000612972
Heightened Def Con from 0.000612995 to 0.000612997
Heightened Def Con from 0.000612998 to 0.000612998
Heightened Def Con from 0.000613659 to 0.000613659
Heightened Def Con from 0.00061367 to 0.000613676
Heightened Def Con from 0.000617707 to 0.000617708
Heightened Def Con from 0.000617756 to 0.000617756
Heightened Def Con from 0.000618874 to 0.000618874
Heightened Def Con from 0.000618886 to 0.000618892
Heightened Def Con from 0.000622251 to 0.000622252
Heightened Def Con from 0.000622275 to 0.000622275
Heightened Def Con from 0.000622297 to 0.000622299
Heightened Def Con from 0.0006223 to 0.0006223
Heightened Def Con from 0.000624412 to 0.000624412
Heightened Def Con from 0.000626713 to 0.000626713
Heightened Def Con from 0.000626735 to 0.000626735
Heightened Def Con from 0.000626762 to 0.000626762
Heightened Def Con from 0.000629989 to 0.000629991
Heightened Def Con from 0.000629991 to 0.000629991
Heightened Def Con from 0.000631226 to 0.000631226
Heightened Def Con from 0.000631268 to 0.000631274
Heightened Def Con from 0.000631275 to 0.000631275
Heightened Def Con from 0.000631286 to 0.000631291
Heightened Def Con from 0.00063529 to 0.000635292
Heightened Def Con from 0.000635294 to 0.000635294
Heightened Def Con from 0.000635923 to 0.000635923
Heightened Def Con from 0.000635945 to 0.000635945
Heightened Def Con from 0.000635965 to 0.00063597
Heightened Def Con from 0.000635972 to 0.000635972
Heightened Def Con from 0.000635982 to 0.000635989
Heightened Def Con from 0.000640211 to 0.000640211
Heightened Def Con from 0.000640915 to 0.000640916
Heightened Def Con from 0.000640938 to 0.000640939
Heightened Def Con from 0.000640964 to 0.000640964
Heightened Def Con from 0.000640975 to 0.000640982
Heightened Def Con from 0.000644818 to 0.000644818
Heightened Def Con from 0.000646235 to 0.000646235
Heightened Def Con from 0.000646277 to 0.000646283
Heightened Def Con from 0.000646283 to 0.000646284
Heightened Def Con from 0.000646294 to 0.000646305
Heightened Def Con from 0.000649251 to 0.000649251
Heightened Def Con from 0.000651741 to 0.000651742
Heightened Def Con from 0.00065179 to 0.00065179
Heightened Def Con from 0.000651791 to 0.000651812
Heightened Def Con from 0.000653631 to 0.000653631
Heightened Def Con from 0.000653632 to 0.000653632
Heightened Def Con from 0.000653657 to 0.000653658
Heightened Def Con from 0.000657157 to 0.000657157
Heightened Def Con from 0.00065718 to 0.000657204
Heightened Def Con from 0.000657206 to 0.000657206
Heightened Def Con from 0.000658184 to 0.000658184
Heightened Def Con from 0.000658196 to 0.000658206
Heightened Def Con from 0.000662275 to 0.000662275
Heightened Def Con from 0.000662298 to 0.000662299
Heightened Def Con from 0.000662324 to 0.000662324
Heightened Def Con from 0.000662974 to 0.000662975
Heightened Def Con from 0.000662985 to 0.000662991
Heightened Def Con from 0.000667071 to 0.000667071
Heightened Def Con from 0.000667094 to 0.000667096
Heightened Def Con from 0.00066712 to 0.00066712
Heightened Def Con from 0.000668135 to 0.000668136
Heightened Def Con from 0.000668147 to 0.000668153
Heightened Def Con from 0.000671637 to 0.000671638
Heightened Def Con from 0.000671686 to 0.000671686
Heightened Def Con from 0.000673636 to 0.000673641
Heightened Def Con from 0.000673642 to 0.000673642
Heightened Def Con from 0.000676102 to 0.000676102
Heightened Def Con from 0.000676151 to 0.000676151
Heightened Def Con from 0.000679237 to 0.000679238
Heightened Def Con from 0.0006806 to 0.0006806
Heightened Def Con from 0.000680622 +to 0.000680622
Heightened Def Con from 0.000680622 to 0.000680622
Heightened Def Con from 0.000680622 +to 0.000680622
Heightened Def Con from 0.000680622 to 0.000680622
Heightened Def Con from 0.000680623 to 0.000680623
Heightened Def Con from 0.000680649 to 0.000680649
Heightened Def Con from 0.000680659 to 0.00068067
Heightened Def Con from 0.00068459 to 0.00068459
Heightened Def Con from 0.000685264 to 0.000685265
Heightened Def Con from 0.000685306 to 0.000685312
Heightened Def Con from 0.000685313 to 0.000685314
Heightened Def Con from 0.000685324 to 0.000685332
Heightened Def Con from 0.000689555 to 0.000689557
Heightened Def Con from 0.000689558 to 0.000689558
Heightened Def Con from 0.000690212 to 0.000690212
Heightened Def Con from 0.000690234 +to 0.000690234
Heightened Def Con from 0.000690234 to 0.000690234
Heightened Def Con from 0.000690234 to 0.000690234
Heightened Def Con from 0.000690256 to 0.000690259
Heightened Def Con from 0.000690261 to 0.000690261
Heightened Def Con from 0.000690271 to 0.000690278
Heightened Def Con from 0.0006942 to 0.0006942
Heightened Def Con from 0.00069549 to 0.00069549
Heightened Def Con from 0.000695532 to 0.000695538
Heightened Def Con from 0.000695539 to 0.00069554
Heightened Def Con from 0.000695549 to 0.00069556
Heightened Def Con from 0.000698621 +to 0.000698621
Heightened Def Con from 0.000698645 to 0.000698647
Heightened Def Con from 0.000698648 to 0.000698648
Heightened Def Con from 0.000700985 to 0.000700986
Heightened Def Con from 0.000701009 to 0.000701009
Heightened Def Con from 0.000701034 to 0.000701035
Heightened Def Con from 0.000701037 to 0.000701056
Heightened Def Con from 0.000703023 to 0.000703023
Heightened Def Con from 0.000703049 to 0.000703049
Heightened Def Con from 0.00070643 to 0.00070643
Heightened Def Con from 0.000706476 to 0.000706478
Heightened Def Con from 0.000706479 to 0.00070648
Heightened Def Con from 0.00070755 to 0.000707551
Heightened Def Con from 0.000707562 to 0.000707572
Heightened Def Con from 0.000711594 to 0.000711594
Heightened Def Con from 0.000711616 to 0.000711617
Heightened Def Con from 0.000711643 to 0.000711643
Heightened Def Con from 0.000712296 to 0.000712296
Heightened Def Con from 0.000712308 to 0.000712314
Heightened Def Con from 0.00071643 to 0.00071643
Heightened Def Con from 0.000716452 to 0.000716452
Heightened Def Con from 0.000716452 to 0.000716452
Heightened Def Con from 0.000716475 to 0.000716478
Heightened Def Con from 0.000716479 to 0.000716479
Heightened Def Con from 0.000717404 to 0.000717405
Heightened Def Con from 0.000717416 to 0.000717422
Heightened Def Con from 0.00072102 to 0.000721021
Heightened Def Con from 0.000721044 to 0.000721044
Heightened Def Con from 0.000721066 to 0.000721068
Heightened Def Con from 0.000721069 to 0.00072107
Heightened Def Con from 0.000722868 to 0.000722873
Heightened Def Con from 0.000722874 to 0.000722874
Heightened Def Con from 0.000725491 to 0.000725492
Heightened Def Con from 0.00072554 to 0.00072554
Heightened Def Con from 0.000728476 to 0.000728477
Heightened Def Con from 0.000728478 to 0.000728478
Heightened Def Con from 0.000729977 to 0.000729977
Heightened Def Con from 0.00073 to 0.000730001
Heightened Def Con from 0.000730026 to 0.000730026
Heightened Def Con from 0.000733878 to 0.000733878
Heightened Def Con from 0.000734611 to 0.000734611
Heightened Def Con from 0.000734634 to 0.000734656
Heightened Def Con from 0.000734659 to 0.00073466
Heightened Def Con from 0.00073467 to 0.000734679
Heightened Def Con from 0.000738895 to 0.000738897
Heightened Def Con from 0.000738898 to 0.000738899
Heightened Def Con from 0.000739514 to 0.000739514
Heightened Def Con from 0.000739558 to 0.000739562
Heightened Def Con from 0.000739563 to 0.000739563
Heightened Def Con from 0.000739574 to 0.000739581
Heightened Def Con from 0.000743578 to 0.000743578
Heightened Def Con from 0.000744749 to 0.00074475
Heightened Def Con from 0.000744791 to 0.000744797
Heightened Def Con from 0.000744798 to 0.000744798
Heightened Def Con from 0.000744809 to 0.000744816
Heightened Def Con from 0.00074804 to 0.000748043
Heightened Def Con from 0.000748044 to 0.000748044
Heightened Def Con from 0.000750229 to 0.000750229
Heightened Def Con from 0.000750278 to 0.000750278
Heightened Def Con from 0.000752443 to 0.000752443
Heightened Def Con from 0.000752446 to 0.000752465
Heightened Def Con from 0.000755697 to 0.000755697
Heightened Def Con from 0.000755746 to 0.000755746
Heightened Def Con from 0.000756933 to 0.00075694
Heightened Def Con from 0.000760906 to 0.000760907
Heightened Def Con from 0.000760929 to 0.000760929
Heightened Def Con from 0.000760952 to 0.000760954
Heightened Def Con from 0.000760955 to 0.000760956
Heightened Def Con from 0.000761626 to 0.000761626
Heightened Def Con from 0.000761638 to 0.000761644
Heightened Def Con from 0.000765785 to 0.000765785
Heightened Def Con from 0.000765834 to 0.000765834
Heightened Def Con from 0.000766681 to 0.000766681
Heightened Def Con from 0.000766692 to 0.000766698
Heightened Def Con from 0.000770402 to 0.000770402
Heightened Def Con from 0.000770425 to 0.000770427
Heightened Def Con from 0.000770447 to 0.000770449
Heightened Def Con from 0.000770451 to 0.000770451
Heightened Def Con from 0.000772102 to 0.000772106
Heightened Def Con from 0.000772108 to 0.000772108
Heightened Def Con from 0.000772119 to 0.000772128
Heightened Def Con from 0.000774881 to 0.000774881
Heightened Def Con from 0.000774904 to 0.000774928
Heightened Def Con from 0.00077493 to 0.000774931
Heightened Def Con from 0.000777714 to 0.000777714
Heightened Def Con from 0.000779356 to 0.000779357
Heightened Def Con from 0.000779406 to 0.000779406
Heightened Def Con from 0.000783158 to 0.000783159
Heightened Def Con from 0.000783962 to 0.000783963
Heightened Def Con from 0.000783985 to 0.000784008
Heightened Def Con from 0.000784011 to 0.000784011
Heightened Def Con from 0.000784022 to 0.00078403
Heightened Def Con from 0.000788232 to 0.000788233
Heightened Def Con from 0.000788824 to 0.000788824
Heightened Def Con from 0.000788872 to 0.000788873
Heightened Def Con from 0.000788883 to 0.00078889
Heightened Def Con from 0.000792949 to 0.000792951
Heightened Def Con from 0.000792952 to 0.000792952
Heightened Def Con from 0.000794059 to 0.000794062
Heightened Def Con from 0.000794063 to 0.000794063
Heightened Def Con from 0.000794074 to 0.000794083
Heightened Def Con from 0.000797439 to 0.000797439
Heightened Def Con from 0.000799472 to 0.000799473
Heightened Def Con from 0.000799521 to 0.000799522
Heightened Def Con from 0.000801839 to 0.00080184
Heightened Def Con from 0.00080496 to 0.000804961
Heightened Def Con from 0.000804983 to 0.000804984
Heightened Def Con from 0.000805009 to 0.00080501
Heightened Def Con from 0.000806293 to 0.000806297
Heightened Def Con from 0.000806298 to 0.000806298
Heightened Def Con from 0.00080631 to 0.000806312
Heightened Def Con from 0.000810213 to 0.000810214
Heightened Def Con from 0.000810262 to 0.000810262
Heightened Def Con from 0.000810937 +++to 0.000810937
Heightened Def Con from 0.000810937 to 0.000810937
Heightened Def Con from 0.000810963 to 0.000810963
Heightened Def Con from 0.000810975 to 0.000810981
Heightened Def Con from 0.000815135 to 0.000815135
Heightened Def Con from 0.00081518 to 0.000815182
Heightened Def Con from 0.000815184 to 0.000815184
Heightened Def Con from 0.000815964 to 0.000815964
Heightened Def Con from 0.000815976 to 0.000815982
Heightened Def Con from 0.000819781 to 0.000819781
Heightened Def Con from 0.000819804 to 0.000819804
Heightened Def Con from 0.00081983 to 0.00081983
Heightened Def Con from 0.000821341 to 0.000821345
Heightened Def Con from 0.000821346 to 0.000821346
Heightened Def Con from 0.000821358 to 0.000821368
Heightened Def Con from 0.000824271 to 0.000824272
Heightened Def Con from 0.00082432 to 0.000824321
Heightened Def Con from 0.000826948 to 0.000826948
Heightened Def Con from 0.000828739 to 0.00082874
Heightened Def Con from 0.000828761 to 0.000828761
Heightened Def Con from 0.000828762 to 0.000828786
Heightened Def Con from 0.000828787 to 0.000828787
Heightened Def Con from 0.000832432 to 0.000832432
Heightened Def Con from 0.000833319 to 0.000833319
Heightened Def Con from 0.000833342 to 0.000833365
Heightened Def Con from 0.000833368 to 0.000833368
Heightened Def Con from 0.000833378 to 0.000833387
Heightened Def Con from 0.000837556 to 0.000837558
Heightened Def Con from 0.00083756 to 0.00083756
Heightened Def Con from 0.000838139 to 0.000838139
Heightened Def Con from 0.000838183 to 0.000838186
Heightened Def Con from 0.000838188 to 0.000838188
Heightened Def Con from 0.000838198 to 0.000838205
Heightened Def Con from 0.000842321 to 0.000842322
Heightened Def Con from 0.000843283 to 0.000843284
Heightened Def Con from 0.000843333 to 0.000843333
Heightened Def Con from 0.000843343 to 0.00084335
Heightened Def Con from 0.000846831 to 0.000846832
Heightened Def Con from 0.000848716 to 0.000848717
Heightened Def Con from 0.000848765 to 0.000848765
Heightened Def Con from 0.000851234 to 0.000851234
Heightened Def Con from 0.000851234 to 0.000851234
Heightened Def Con from 0.000851234 to 0.000851235
Heightened Def Con from 0.000854217 to 0.000854217
Heightened Def Con from 0.000854263 to 0.000854265
Heightened Def Con from 0.000854266 to 0.000854266
Heightened Def Con from 0.000855677 to 0.000855677
Heightened Def Con from 0.000855689 to 0.00085569
Heightened Def Con from 0.000859513 to 0.000859513
Heightened Def Con from 0.000859562 to 0.000859562
Heightened Def Con from 0.000860305 to 0.000860306
Heightened Def Con from 0.000860317 to 0.000860323
Heightened Def Con from 0.000864479 to 0.000864479
Heightened Def Con from 0.000864502 to 0.000864526
Heightened Def Con from 0.000864527 to 0.000864528
Heightened Def Con from 0.000865209 to 0.000865209
Heightened Def Con from 0.000865255 to 0.000865255
Heightened Def Con from 0.000865267 to 0.000865273
Heightened Def Con from 0.000869156 to 0.000869156
Heightened Def Con from 0.000869179 to 0.000869203
Heightened Def Con from 0.000869205 to 0.000869206
Heightened Def Con from 0.000870589 to 0.000870589
Heightened Def Con from 0.0008706 to 0.00087061
Heightened Def Con from 0.00087366 to 0.000873661
Heightened Def Con from 0.000873683 to 0.000873683
Heightened Def Con from 0.000873706 to 0.000873708
Heightened Def Con from 0.000873709 to 0.000873709
Heightened Def Con from 0.000876179 to 0.000876179
Heightened Def Con from 0.000876182 to 0.000876201
Heightened Def Con from 0.000878123 to 0.000878123
Heightened Def Con from 0.000878172 to 0.000878173
Heightened Def Con from 0.000881698 to 0.000881698
Heightened Def Con from 0.00088268 to 0.000882681
Heightened Def Con from 0.000882703 to 0.000882703
Heightened Def Con from 0.000882725 to 0.000882728
Heightened Def Con from 0.000882729 to 0.000882729
Heightened Def Con from 0.00088274 to 0.000882748
Heightened Def Con from 0.000886876 to 0.000886878
Heightened Def Con from 0.000886879 to 0.000886879
Heightened Def Con from 0.00088746 to 0.00088746
Heightened Def Con from 0.000887504 to 0.000887507
Heightened Def Con from 0.000887509 to 0.000887509
Heightened Def Con from 0.000887519 to 0.000887526
Heightened Def Con from 0.00089166 to 0.000891661
Heightened Def Con from 0.000891683 to 0.000891685
Heightened Def Con from 0.000891686 to 0.000891686
Heightened Def Con from 0.000892559 to 0.000892559
Heightened Def Con from 0.000892601 to 0.000892607
Heightened Def Con from 0.000892608 to 0.000892608
Heightened Def Con from 0.000892618 to 0.000892625
Heightened Def Con from 0.000896222 to 0.000896223
Heightened Def Con from 0.00089801 to 0.00089801
Heightened Def Con from 0.000898021 to 0.000898032
Heightened Def Con from 0.000900631 to 0.000900631
Heightened Def Con from 0.00090347 to 0.000903471
Heightened Def Con from 0.000903492 to 0.000903493
Heightened Def Con from 0.000903516 to 0.000903518
Heightened Def Con from 0.000903518 to 0.000903518
Heightened Def Con from 0.000905053 to 0.000905058
Heightened Def Con from 0.000905059 to 0.000905059
Heightened Def Con from 0.000908805 to 0.000908806
Heightened Def Con from 0.000908828 to 0.000908852
Heightened Def Con from 0.000908854 to 0.000908854
Heightened Def Con from 0.000909628 to 0.000909628
Heightened Def Con from 0.000909654 to 0.000909654
Heightened Def Con from 0.000909665 to 0.000909671
Heightened Def Con from 0.000913817 to 0.000913817
Heightened Def Con from 0.000913862 to 0.000913865
Heightened Def Con from 0.000913866 to 0.000913867
Heightened Def Con from 0.000914553 to 0.000914553
Heightened Def Con from 0.000914564 to 0.00091457
Heightened Def Con from 0.000918528 to 0.000918528
Heightened Def Con from 0.000918551 to 0.000918551
Heightened Def Con from 0.000918577 to 0.000918577
Heightened Def Con from 0.000919836 to 0.000919836
Heightened Def Con from 0.000919847 to 0.000919857
Heightened Def Con from 0.000923048 to 0.000923049
Heightened Def Con from 0.000923097 to 0.000923097
Heightened Def Con from 0.000925407 to 0.000925407
Heightened Def Con from 0.000927509 to 0.000927509
Heightened Def Con from 0.000927532 to 0.000927533
Heightened Def Con from 0.000927558 to 0.000927559
Heightened Def Con from 0.00092756 to 0.00092758
Heightened Def Con from 0.00093093 to 0.00093093
Heightened Def Con from 0.000930956 to 0.000930956
Heightened Def Con from 0.000932045 to 0.000932045
Heightened Def Con from 0.000932094 to 0.000932094
Heightened Def Con from 0.000932105 to 0.000932111
Heightened Def Con from 0.000936188 to 0.00093619
Heightened Def Con from 0.000936191 to 0.000936191
Heightened Def Con from 0.000936787 to 0.000936787
Heightened Def Con from 0.000936836 to 0.000936836
Heightened Def Con from 0.000936846 to 0.000936853
Heightened Def Con from 0.000941042 to 0.000941044
Heightened Def Con from 0.000941045 to 0.000941045
Heightened Def Con from 0.000941839 to 0.00094184
Heightened Def Con from 0.000941888 to 0.000941889
Heightened Def Con from 0.000941899 to 0.000941907
Heightened Def Con from 0.000945607 to 0.00094561
Heightened Def Con from 0.000945611 to 0.000945611
Heightened Def Con from 0.000947208 to 0.000947208
Heightened Def Con from 0.000947257 to 0.000947257
Heightened Def Con from 0.000947268 to 0.000947279
Heightened Def Con from 0.000950028 to 0.000950028
Heightened Def Con from 0.00095272 to 0.00095272
Heightened Def Con from 0.000952742 to 0.000952762
Heightened Def Con from 0.000952767 to 0.000952767
Heightened Def Con from 0.000952768 to 0.000952768
Heightened Def Con from 0.000954446 to 0.000954446
Heightened Def Con from 0.000958092 to 0.000958093
Heightened Def Con from 0.000958115 to 0.000958116
Heightened Def Con from 0.000958141 to 0.000958142
Heightened Def Con from 0.000959009 to 0.000959009
Heightened Def Con from 0.00095902 to 0.000959026
Heightened Def Con from 0.00096315 to 0.00096315
Heightened Def Con from 0.000963199 to 0.000963199
Heightened Def Con from 0.000963859 to 0.000963859
Heightened Def Con from 0.00096387 to 0.000963876
Heightened Def Con from 0.000967897 to 0.000967897
Heightened Def Con from 0.000967942 to 0.000967944
Heightened Def Con from 0.000967946 to 0.000967946
Heightened Def Con from 0.000969089 to 0.000969089
Heightened Def Con from 0.000969101 to 0.000969107
Heightened Def Con from 0.000972435 to 0.000972436
Heightened Def Con from 0.000972457 to 0.000972457
Heightened Def Con from 0.000972458 to 0.000972458
Heightened Def Con from 0.000972484 to 0.000972485
Heightened Def Con from 0.000974636 to 0.000974636
Heightened Def Con from 0.000976896 to 0.000976897
Heightened Def Con from 0.000976919 to 0.000976919
Heightened Def Con from 0.000976945 to 0.000976945
Heightened Def Con from 0.000976945 to 0.000976967
Heightened Def Con from 0.000980207 to 0.000980209
Heightened Def Con from 0.00098021 to 0.00098021
Heightened Def Con from 0.000981414 to 0.000981415
Heightened Def Con from 0.000981437 to 0.000981437
Heightened Def Con from 0.000981437 to 0.000981437
Heightened Def Con from 0.000981463 to 0.000981464
Heightened Def Con from 0.000981474 to 0.000981485
Heightened Def Con from 0.000985471 to 0.000985472
Heightened Def Con from 0.000985494 to 0.000985496
Heightened Def Con from 0.000985497 to 0.000985497
Heightened Def Con from 0.000986121 to 0.000986122
Heightened Def Con from 0.000986166 to 0.000986169
Heightened Def Con from 0.00098617 to 0.00098617
Heightened Def Con from 0.000986181 to 0.000986188
Heightened Def Con from 0.000990397 to 0.000990399
Heightened Def Con from 0.0009904 to 0.0009904
Heightened Def Con from 0.000991127 to 0.000991128
Heightened Def Con from 0.000991176 to 0.000991176
Heightened Def Con from 0.000991187 to 0.000991194
Heightened Def Con from 0.000994997 to 0.000994997
Heightened Def Con from 0.000996459 to 0.000996459
Heightened Def Con from 0.000996481 to 0.000996481
Heightened Def Con from 0.0009965 to 0.000996507
Heightened Def Con from 0.000996508 to 0.000996508
Heightened Def Con from 0.000996518 to 0.000996529
Heightened Def Con from 0.000999426 to 0.000999426
N-Period=all
Fourier components of V(vo)
DC component:-0.155107

Harmonic	Frequency	 Fourier 	Normalized	 Phase  	Normalized
 Number 	  [Hz]   	Component	 Component	[degree]	Phase [deg]
    1   	 2.000e+4	 2.197e+1	 1.000e+0	  -31.66°	    0.00°
    2   	 4.000e+4	 9.067e-3	 4.127e-4	  128.67°	  160.34°
    3   	 6.000e+4	 3.584e-2	 1.632e-3	   29.57°	   61.23°
Total Harmonic Distortion: 0.168305%(8.163139%)



Date: Tue Mar 31 22:00:50 2020
Total elapsed time: 628.967 seconds.

tnom = 27
temp = 27
method = modified trap
totiter = 6349811
traniter = 6349811
tranpoints = 1606286
accept = 1198823
rejected = 408108
matrix size = 573
fillins = 517
solver = Alternate
Thread vector: 144.0/40.7[9] 23.0/10.7[9] 28.1/8.0[9] 3.9/5.8[1]  2592/500
Matrix Compiler1: 63.95 KB object code size  24.0/18.5/[4.5]
Matrix Compiler2: 54.72 KB object code size  13.5/15.7/[3.3]

