Circuit: * C:\Users\Ema\Desktop\DCE-GRUPO10\DISTORSION\OTRAS\Distorsion_1k_ol.asc

Questionable use of curly braces in "b§e_abmgate yint 0 v={if(v(a)>{{vthresh}},{{vss}},{{vdd}})}"
    Error: undefined symbol in: "if([v](a)>((vthresh)),((vss)),((vdd)))"
Questionable use of curly braces in "b§e_abmgate yint 0 v={if(v(a)>{{vthresh}}&v(b)>{{vthresh}},{{vdd}},{{vss}})}"
    Error: undefined symbol in: "if([v](a)>((vthresh))&v(b)>((vthresh)),((vdd)),((vss)))"
Questionable use of curly braces in "b§e_abmgate yint 0 v={if(v(a)>{{vthresh}}&v(b)>{{vthresh}},{{vdd}},{{vss}})}"
    Error: undefined symbol in: "if([v](a)>((vthresh))&v(b)>((vthresh)),((vdd)),((vss)))"
Questionable use of curly braces in "b§e_abmgate yint 0 v={if(v(a)>{{vthresh}},{{vss}},{{vdd}})}"
    Error: undefined symbol in: "if([v](a)>((vthresh)),((vss)),((vdd)))"
Questionable use of curly braces in "b§e_abmgate yint 0 v={if(v(a)>{{vthresh}}&v(b)>{{vthresh}},{{vdd}},{{vss}})}"
    Error: undefined symbol in: "if([v](a)>((vthresh))&v(b)>((vthresh)),((vdd)),((vss)))"
Questionable use of curly braces in "b§e_abmgate yint 0 v={if(v(a)>{{vthresh}},{{vss}},{{vdd}})}"
    Error: undefined symbol in: "if([v](a)>((vthresh)),((vss)),((vdd)))"
WARNING: Less than two connections to node NC_03.  This node is used by V:U4:_V11.
WARNING: Less than two connections to node NC_02.  This node is used by V:U4:_V12.
WARNING: Less than two connections to node NC_01.  This node is used by V:U4:_V13.
WARNING: Less than two connections to node NC_04.  This node is used by V:U4:_V14.
WARNING: Less than two connections to node -15V.  This node is used by V6.
Instance "m:u4:_m12:1": Length shorter than recommended for a level 1 MOSFET.
Instance "m:u4:_m14:1": Length shorter than recommended for a level 1 MOSFET.
Instance "m:u4:_m15:1": Length shorter than recommended for a level 1 MOSFET.
Instance "m:u4:_m13:1": Length shorter than recommended for a level 1 MOSFET.
Instance "m:m2:2": Length shorter than recommended for a level 3 MOSFET.
Instance "m:m2:1": Length shorter than recommended for a level 3 MOSFET.
Instance "m:m1:2": Length shorter than recommended for a level 3 MOSFET.
Instance "m:m1:1": Length shorter than recommended for a level 3 MOSFET.
Per .tran options, skipping operating point for transient analysis.
Ignoring empty pin current: Ix(u4:vcci_1)
.step vin=0.2
Changing Tseed to 1e-010
Changing Tseed to 1e-012
Changing Tseed to 1e-009
Changing Tseed to 1e-013
Changing Tseed to 1e-008
Changing Tseed to 1e-014
Changing Tseed to 1e-007
Changing Tseed to 1e-015
Changing Tseed to 1e-006
Changing Tseed to 1e-016
Changing Tseed to 1e-005
Changing Tseed to 1e-017
Heightened Def Con from 0 Changing Tseed to 1e-009
Changing Tseed to 1e-011
Changing Tseed to 1e-008
Changing Tseed to 1e-012
Changing Tseed to 1e-007
Changing Tseed to 1e-013
Changing Tseed to 1e-006
Changing Tseed to 1e-014
Changing Tseed to 1e-005
Changing Tseed to 1e-015
Changing Tseed to 0.0001
Changing Tseed to 1e-016
+Changing Tseed to 1e-009
Changing Tseed to 1e-011
Changing Tseed to 1e-008
Changing Tseed to 1e-012
Changing Tseed to 1e-007
Changing Tseed to 1e-013
Changing Tseed to 1e-006
Changing Tseed to 1e-014
Changing Tseed to 1e-005
Changing Tseed to 1e-015
Changing Tseed to 0.0001
Changing Tseed to 1e-016
+Changing Tseed to 1e-009
Changing Tseed to 1e-011
Changing Tseed to 1e-008
Changing Tseed to 1e-012
Changing Tseed to 1e-007
Changing Tseed to 1e-013
Changing Tseed to 1e-006
Changing Tseed to 1e-014
Changing Tseed to 1e-005
Changing Tseed to 1e-015
Changing Tseed to 0.0001
Changing Tseed to 1e-016
+Changing Tseed to 1e-009
Changing Tseed to 1e-011
Changing Tseed to 1e-008
Changing Tseed to 1e-012
Changing Tseed to 1e-007
Changing Tseed to 1e-013
Changing Tseed to 1e-006
Changing Tseed to 1e-014
Changing Tseed to 1e-005
Changing Tseed to 1e-015
Changing Tseed to 0.0001
Changing Tseed to 1e-016
+Changing Tseed to 1e-009
Changing Tseed to 1e-011
Changing Tseed to 1e-008
Changing Tseed to 1e-012
Changing Tseed to 1e-007
Changing Tseed to 1e-013
Changing Tseed to 1e-006
Changing Tseed to 1e-014
Changing Tseed to 1e-005
Changing Tseed to 1e-015
Changing Tseed to 0.0001
Changing Tseed to 1e-016
+Changing Tseed to 1e-009
Changing Tseed to 1e-011
Changing Tseed to 1e-008
Changing Tseed to 1e-012
Changing Tseed to 1e-007
Changing Tseed to 1e-013
Changing Tseed to 1e-006
Changing Tseed to 1e-014
Changing Tseed to 1e-005
Changing Tseed to 1e-015
Changing Tseed to 0.0001
Changing Tseed to 1e-016
+Changing Tseed to 1e-009
Changing Tseed to 1e-011
Changing Tseed to 1e-008
Changing Tseed to 1e-012
Changing Tseed to 1e-007
Changing Tseed to 1e-013
Changing Tseed to 1e-006
Changing Tseed to 1e-014
Changing Tseed to 1e-005
Changing Tseed to 1e-015
Changing Tseed to 0.0001
Changing Tseed to 1e-016
+Changing Tseed to 1e-009
Changing Tseed to 1e-011
Changing Tseed to 1e-008
Changing Tseed to 1e-012
Changing Tseed to 1e-007
Changing Tseed to 1e-013
Changing Tseed to 1e-006
Changing Tseed to 1e-014
Changing Tseed to 1e-005
Changing Tseed to 1e-015
Changing Tseed to 0.0001
Changing Tseed to 1e-016
+Changing Tseed to 1e-009
Changing Tseed to 1e-011
Changing Tseed to 1e-008
Changing Tseed to 1e-012
Changing Tseed to 1e-007
Changing Tseed to 1e-013
Changing Tseed to 1e-006
Changing Tseed to 1e-014
Changing Tseed to 1e-005
Changing Tseed to 1e-015
Changing Tseed to 0.0001
Changing Tseed to 1e-016
+Changing Tseed to 1e-009
Changing Tseed to 1e-011
Changing Tseed to 1e-008
Changing Tseed to 1e-012
Changing Tseed to 1e-007
Changing Tseed to 1e-013
Changing Tseed to 1e-006
Changing Tseed to 1e-014
Changing Tseed to 1e-005
Changing Tseed to 1e-015
Changing Tseed to 0.0001
Changing Tseed to 1e-016
+Changing Tseed to 1e-009
Changing Tseed to 1e-011
Changing Tseed to 1e-008
Changing Tseed to 1e-012
Changing Tseed to 1e-007
Changing Tseed to 1e-013
Changing Tseed to 1e-006
Changing Tseed to 1e-014
Changing Tseed to 1e-005
Changing Tseed to 1e-015
Changing Tseed to 0.0001
Changing Tseed to 1e-016
+Changing Tseed to 1e-009
Changing Tseed to 1e-011
Changing Tseed to 1e-008
Changing Tseed to 1e-012
Changing Tseed to 1e-007
Changing Tseed to 1e-013
Changing Tseed to 1e-006
Changing Tseed to 1e-014
Changing Tseed to 1e-005
Changing Tseed to 1e-015
Changing Tseed to 0.0001
Changing Tseed to 1e-016
+Changing Tseed to 1e-009
Changing Tseed to 1e-011
Changing Tseed to 1e-008
Changing Tseed to 1e-012
Changing Tseed to 1e-007
Changing Tseed to 1e-013
Changing Tseed to 1e-006
Changing Tseed to 1e-014
Changing Tseed to 1e-005
Changing Tseed to 1e-015
Changing Tseed to 0.0001
Changing Tseed to 1e-016
+Changing Tseed to 1e-009
Changing Tseed to 1e-011
Changing Tseed to 1e-008
Changing Tseed to 1e-012
Changing Tseed to 1e-007
Changing Tseed to 1e-013
Changing Tseed to 1e-006
Changing Tseed to 1e-014
Changing Tseed to 1e-005
Changing Tseed to 1e-015
Changing Tseed to 0.0001
Changing Tseed to 1e-016
+Changing Tseed to 1e-009
Changing Tseed to 1e-011
Changing Tseed to 1e-008
Changing Tseed to 1e-012
Changing Tseed to 1e-007
Changing Tseed to 1e-013
Changing Tseed to 1e-006
Changing Tseed to 1e-014
Changing Tseed to 1e-005
Changing Tseed to 1e-015
Changing Tseed to 0.0001
Changing Tseed to 1e-016
+Changing Tseed to 1e-009
Changing Tseed to 1e-011
Changing Tseed to 1e-008
Changing Tseed to 1e-012
Changing Tseed to 1e-007
Changing Tseed to 1e-013
Changing Tseed to 1e-006
Changing Tseed to 1e-014
Changing Tseed to 1e-005
Changing Tseed to 1e-015
Changing Tseed to 0.0001
Changing Tseed to 1e-016
+Changing Tseed to 1e-009
Changing Tseed to 1e-011
Changing Tseed to 1e-008
Changing Tseed to 1e-012
Changing Tseed to 1e-007
Changing Tseed to 1e-013
Changing Tseed to 1e-006
Changing Tseed to 1e-014
Changing Tseed to 1e-005
Changing Tseed to 1e-015
Changing Tseed to 0.0001
Changing Tseed to 1e-016
+Changing Tseed to 1e-009
Changing Tseed to 1e-011
Changing Tseed to 1e-008
Changing Tseed to 1e-012
Changing Tseed to 1e-007
Changing Tseed to 1e-013
Changing Tseed to 1e-006
Changing Tseed to 1e-014
Changing Tseed to 1e-005
Changing Tseed to 1e-015
Changing Tseed to 0.0001
Changing Tseed to 1e-016
+Changing Tseed to 1e-009
Changing Tseed to 1e-011
Changing Tseed to 1e-008
Changing Tseed to 1e-012
Changing Tseed to 1e-007
Changing Tseed to 1e-013
Changing Tseed to 1e-006
Changing Tseed to 1e-014
Changing Tseed to 1e-005
Changing Tseed to 1e-015
Changing Tseed to 0.0001
Changing Tseed to 1e-016
+Changing Tseed to 1e-009
Changing Tseed to 1e-011
Changing Tseed to 1e-008
Changing Tseed to 1e-012
Changing Tseed to 1e-007
Changing Tseed to 1e-013
Changing Tseed to 1e-006
Changing Tseed to 1e-014
Changing Tseed to 1e-005
Changing Tseed to 1e-015
Changing Tseed to 0.0001
Changing Tseed to 1e-016
+Changing Tseed to 1e-009
Changing Tseed to 1e-011
Changing Tseed to 1e-008
Changing Tseed to 1e-012
Changing Tseed to 1e-007
Changing Tseed to 1e-013
Changing Tseed to 1e-006
Changing Tseed to 1e-014
Changing Tseed to 1e-005
Changing Tseed to 1e-015
Changing Tseed to 0.0001
Changing Tseed to 1e-016
+Changing Tseed to 1e-009
Changing Tseed to 1e-011
Changing Tseed to 1e-008
Changing Tseed to 1e-012
Changing Tseed to 1e-007
Changing Tseed to 1e-013
Changing Tseed to 1e-006
Changing Tseed to 1e-014
Changing Tseed to 1e-005
Changing Tseed to 1e-015
Changing Tseed to 0.0001
Changing Tseed to 1e-016
+Changing Tseed to 1e-009
Changing Tseed to 1e-011
Changing Tseed to 1e-008
Changing Tseed to 1e-012
Changing Tseed to 1e-007
Changing Tseed to 1e-013
Changing Tseed to 1e-006
Changing Tseed to 1e-014
Changing Tseed to 1e-005
Changing Tseed to 1e-015
Changing Tseed to 0.0001
Changing Tseed to 1e-016
+Changing Tseed to 1e-009
Changing Tseed to 1e-011
Changing Tseed to 1e-008
Changing Tseed to 1e-012
Changing Tseed to 1e-007
Changing Tseed to 1e-013
Changing Tseed to 1e-006
Changing Tseed to 1e-014
Changing Tseed to 1e-005
Changing Tseed to 1e-015
Changing Tseed to 0.0001
Changing Tseed to 1e-016
+Changing Tseed to 1e-009
Changing Tseed to 1e-011
Changing Tseed to 1e-008
Changing Tseed to 1e-012
Changing Tseed to 1e-007
Changing Tseed to 1e-013
Changing Tseed to 1e-006
Changing Tseed to 1e-014
Changing Tseed to 1e-005
Changing Tseed to 1e-015
Changing Tseed to 0.0001
Changing Tseed to 1e-016
+Changing Tseed to 1e-009
Changing Tseed to 1e-011
Changing Tseed to 1e-008
Changing Tseed to 1e-012
Changing Tseed to 1e-007
Changing Tseed to 1e-013
Changing Tseed to 1e-006
Changing Tseed to 1e-014
Changing Tseed to 1e-005
Changing Tseed to 1e-015
Changing Tseed to 0.0001
Changing Tseed to 1e-016
+Changing Tseed to 1e-009
Changing Tseed to 1e-011
Changing Tseed to 1e-008
Changing Tseed to 1e-012
Changing Tseed to 1e-007
Changing Tseed to 1e-013
Changing Tseed to 1e-006
Changing Tseed to 1e-014
Changing Tseed to 1e-005
Changing Tseed to 1e-015
Changing Tseed to 0.0001
Changing Tseed to 1e-016
+Changing Tseed to 1e-009
Changing Tseed to 1e-011
Changing Tseed to 1e-008
Changing Tseed to 1e-012
Changing Tseed to 1e-007
Changing Tseed to 1e-013
Changing Tseed to 1e-006
Changing Tseed to 1e-014
Changing Tseed to 1e-005
Changing Tseed to 1e-015
Changing Tseed to 0.0001
Changing Tseed to 1e-016
+Changing Tseed to 1e-009
Changing Tseed to 1e-011
Changing Tseed to 1e-008
Changing Tseed to 1e-012
Changing Tseed to 1e-007
Changing Tseed to 1e-013
Changing Tseed to 1e-006
Changing Tseed to 1e-014
Changing Tseed to 1e-005
Changing Tseed to 1e-015
Changing Tseed to 0.0001
Changing Tseed to 1e-016
+Changing Tseed to 1e-009
Changing Tseed to 1e-011
Changing Tseed to 1e-008
Changing Tseed to 1e-012
Changing Tseed to 1e-007
Changing Tseed to 1e-013
Changing Tseed to 1e-006
Changing Tseed to 1e-014
Changing Tseed to 1e-005
Changing Tseed to 1e-015
Changing Tseed to 0.0001
Changing Tseed to 1e-016
+Changing Tseed to 1e-009
Changing Tseed to 1e-011
Changing Tseed to 1e-008
Changing Tseed to 1e-012
Changing Tseed to 1e-007
Changing Tseed to 1e-013
Changing Tseed to 1e-006
Changing Tseed to 1e-014
Changing Tseed to 1e-005
Changing Tseed to 1e-015
Changing Tseed to 0.0001
Changing Tseed to 1e-016
+Changing Tseed to 1e-009
Changing Tseed to 1e-011
Changing Tseed to 1e-008
Changing Tseed to 1e-012
Changing Tseed to 1e-007
Changing Tseed to 1e-013
Changing Tseed to 1e-006
Changing Tseed to 1e-014
Changing Tseed to 1e-005
Changing Tseed to 1e-015
Changing Tseed to 0.0001
Changing Tseed to 1e-016
+Changing Tseed to 1e-009
Changing Tseed to 1e-011
Changing Tseed to 1e-008
Changing Tseed to 1e-012
Changing Tseed to 1e-007
Changing Tseed to 1e-013
Changing Tseed to 1e-006
Changing Tseed to 1e-014
Changing Tseed to 1e-005
Changing Tseed to 1e-015
Changing Tseed to 0.0001
Changing Tseed to 1e-016
+Changing Tseed to 1e-009
Changing Tseed to 1e-011
Changing Tseed to 1e-008
Changing Tseed to 1e-012
Changing Tseed to 1e-007
Changing Tseed to 1e-013
Changing Tseed to 1e-006
Changing Tseed to 1e-014
Changing Tseed to 1e-005
Changing Tseed to 1e-015
Changing Tseed to 0.0001
Changing Tseed to 1e-016
+Changing Tseed to 1e-009
Changing Tseed to 1e-011
Changing Tseed to 1e-008
Changing Tseed to 1e-012
Changing Tseed to 1e-007
Changing Tseed to 1e-013
Changing Tseed to 1e-006
Changing Tseed to 1e-014
Changing Tseed to 1e-005
Changing Tseed to 1e-015
Changing Tseed to 0.0001
Changing Tseed to 1e-016
+Changing Tseed to 1e-009
Changing Tseed to 1e-011
to 1.125e-011
Heightened Def Con from 1.125e-011 +++++++++++++++++++++++++++to 2.26125e-009
Heightened Def Con from 2.26125e-009 +++++++++++++++++++to 2.26394e-009
Heightened Def Con from 2.26394e-009 +++++++++++++++to 2.26398e-009
Heightened Def Con from 1.91525e-008 to 2.01681e-008
Heightened Def Con from 4.99821e-005 to 4.99831e-005
Heightened Def Con from 5.48865e-005 to 5.48866e-005
Heightened Def Con from 5.98231e-005 to 5.98232e-005
Heightened Def Con from 6.22116e-005 to 6.22246e-005
Heightened Def Con from 6.47615e-005 to 6.47616e-005
Heightened Def Con from 6.71339e-005 to 6.71489e-005
Heightened Def Con from 6.96979e-005 to 6.96981e-005
Heightened Def Con from 7.46353e-005 to 7.46354e-005
Heightened Def Con from 7.69919e-005 to 7.70089e-005
Heightened Def Con from 7.95718e-005 to 7.95719e-005
Heightened Def Con from 8.45078e-005 to 8.45079e-005
Heightened Def Con from 8.9445e-005 to 8.94452e-005
Heightened Def Con from 9.17702e-005 to 9.17892e-005
Heightened Def Con from 9.43805e-005 to 9.43806e-005
Heightened Def Con from 9.93173e-005 to 9.93174e-005
Heightened Def Con from 0.000104254 to 0.000104254
Heightened Def Con from 0.000109189 to 0.000109189
Heightened Def Con from 0.000114126 to 0.000114126
Heightened Def Con from 0.00011641 to 0.00011642
Heightened Def Con from 0.000119061 to 0.000119061
Heightened Def Con from 0.000123997 to 0.000123997
Heightened Def Con from 0.000126262 to 0.000126277
Heightened Def Con from 0.000128934 to 0.000128934
Heightened Def Con from 0.000131361 to 0.000131362
Heightened Def Con from 0.000133869 to 0.000133869
Heightened Def Con from 0.000136122 to 0.000136122
Heightened Def Con from 0.000136126 to 0.000136144
Heightened Def Con from 0.000138805 to 0.000138806
Heightened Def Con from 0.000141047 to 0.000141047
Heightened Def Con from 0.00014374 to 0.00014374
Heightened Def Con from 0.000145975 to 0.000145975
Heightened Def Con from 0.000148676 to 0.000148676
Heightened Def Con from 0.000150905 to 0.000150905
Heightened Def Con from 0.000153584 to 0.000153587
Heightened Def Con from 0.000153608 to 0.000153609
Heightened Def Con from 0.00015361 to 0.000153611
Heightened Def Con from 0.000155837 to 0.000155837
Heightened Def Con from 0.000158545 to 0.000158545
Heightened Def Con from 0.000160764 to 0.000160764
Heightened Def Con from 0.000163478 to 0.000163479
Heightened Def Con from 0.00016348 to 0.00016348
Heightened Def Con from 0.000165693 to 0.000165693
Heightened Def Con from 0.000168416 to 0.000168416
Heightened Def Con from 0.000170625 to 0.000170625
Heightened Def Con from 0.00017335 to 0.00017335
Heightened Def Con from 0.000175558 to 0.000175558
Heightened Def Con from 0.000178283 to 0.000178284
Heightened Def Con from 0.000178285 to 0.000178285
Heightened Def Con from 0.000180486 to 0.000180486
Heightened Def Con from 0.000183218 to 0.000183219
Heightened Def Con from 0.00018322 to 0.00018322
Heightened Def Con from 0.000185417 to 0.000185417
Heightened Def Con from 0.000188153 to 0.000188153
Heightened Def Con from 0.000190344 to 0.000190344
Heightened Def Con from 0.000193088 to 0.000193088
Heightened Def Con from 0.000195273 to 0.000195273
Heightened Def Con from 0.000198022 to 0.000198022
Heightened Def Con from 0.000200204 to 0.000200204
Heightened Def Con from 0.000202956 to 0.000202956
Heightened Def Con from 0.000205137 to 0.000205137
Heightened Def Con from 0.000207888 to 0.000207889
Heightened Def Con from 0.00020789 to 0.00020789
Heightened Def Con from 0.000210071 to 0.000210071
Heightened Def Con from 0.000212824 to 0.000212824
Heightened Def Con from 0.000214997 to 0.000214997
Heightened Def Con from 0.000217757 to 0.000217757
Heightened Def Con from 0.00021993 to 0.00021993
Heightened Def Con from 0.000222688 to 0.000222689
Heightened Def Con from 0.000222691 to 0.000222691
Heightened Def Con from 0.000224862 to 0.000224862
Heightened Def Con from 0.000227623 to 0.000227624
Heightened Def Con from 0.000229792 to 0.000229792
Heightened Def Con from 0.000232554 to 0.000232555
Heightened Def Con from 0.000232556 to 0.000232556
Heightened Def Con from 0.000234724 to 0.000234724
Heightened Def Con from 0.000237489 to 0.000237489
Heightened Def Con from 0.000239658 to 0.000239658
Heightened Def Con from 0.00024242 to 0.000242421
Heightened Def Con from 0.000242422 to 0.000242422
Heightened Def Con from 0.000244589 to 0.000244589
Heightened Def Con from 0.000247351 to 0.000247352
Heightened Def Con from 0.000247354 to 0.000247354
Heightened Def Con from 0.000249522 to 0.000249522
Heightened Def Con from 0.000252286 to 0.000252286
Heightened Def Con from 0.000254453 to 0.000254453
Heightened Def Con from 0.000257218 to 0.000257219
Heightened Def Con from 0.00025722 to 0.00025722
Heightened Def Con from 0.000259382 to 0.000259382
Heightened Def Con from 0.000262149 to 0.00026215
Heightened Def Con from 0.000262151 to 0.000262152
Heightened Def Con from 0.000264317 to 0.000264317
Heightened Def Con from 0.00026708 to 0.000267081
Heightened Def Con from 0.000267083 to 0.000267083
Heightened Def Con from 0.000269249 to 0.000269249
Heightened Def Con from 0.000272013 to 0.000272014
Heightened Def Con from 0.000272015 to 0.000272016
Heightened Def Con from 0.000274186 to 0.000274186
Heightened Def Con from 0.000276945 to 0.000276946
Heightened Def Con from 0.000276947 to 0.000276947
Heightened Def Con from 0.000279114 to 0.000279114
Heightened Def Con from 0.000281876 to 0.000281877
Heightened Def Con from 0.000281878 to 0.000281879
Heightened Def Con from 0.000284048 to 0.000284048
Heightened Def Con from 0.000286807 to 0.000286808
Heightened Def Con from 0.00028681 to 0.00028681
Heightened Def Con from 0.000288985 to 0.000288986
Heightened Def Con from 0.000291742 to 0.000291742
Heightened Def Con from 0.000293921 to 0.000293921
Heightened Def Con from 0.000296673 to 0.000296673
Heightened Def Con from 0.000298857 to 0.000298857
Heightened Def Con from 0.000301601 to 0.000301602
Heightened Def Con from 0.000301604 to 0.000301604
Heightened Def Con from 0.000303786 to 0.000303786
Heightened Def Con from 0.000306532 to 0.000306533
Heightened Def Con from 0.000306535 to 0.000306535
Heightened Def Con from 0.000308719 to 0.000308719
Heightened Def Con from 0.000311463 to 0.000311464
Heightened Def Con from 0.000311466 to 0.000311466
Heightened Def Con from 0.000313659 to 0.000313659
Heightened Def Con from 0.000316394 to 0.000316395
Heightened Def Con from 0.000316396 to 0.000316397
Heightened Def Con from 0.000318589 to 0.000318589
Heightened Def Con from 0.000321327 to 0.000321327
Heightened Def Con from 0.000323523 to 0.000323523
Heightened Def Con from 0.000326257 to 0.000326257
Heightened Def Con from 0.000328457 to 0.000328457
Heightened Def Con from 0.000331187 to 0.000331187
Heightened Def Con from 0.000333394 to 0.000333394
Heightened Def Con from 0.000336117 to 0.000336117
Heightened Def Con from 0.000338333 to 0.000338333
Heightened Def Con from 0.000341047 to 0.000341047
Heightened Def Con from 0.000343266 to 0.000343266
Heightened Def Con from 0.000343271 to 0.000343271
Heightened Def Con from 0.000345976 to 0.000345976
Heightened Def Con from 0.000348204 to 0.000348204
Heightened Def Con from 0.000348208 to 0.000348226
Heightened Def Con from 0.000350906 to 0.000350906
Heightened Def Con from 0.00035314 to 0.00035314
Heightened Def Con from 0.000353144 to 0.000353161
Heightened Def Con from 0.000355834 to 0.000355835
Heightened Def Con from 0.000355836 to 0.000355836
Heightened Def Con from 0.000358073 to 0.000358074
Heightened Def Con from 0.000360763 to 0.000360763
Heightened Def Con from 0.000360764 to 0.000360764
Heightened Def Con from 0.00036301 to 0.00036301
Heightened Def Con from 0.000363014 to 0.000363032
Heightened Def Con from 0.000365692 to 0.000365693
Heightened Def Con from 0.000365694 to 0.000365694
Heightened Def Con from 0.000367944 to 0.000367945
Heightened Def Con from 0.000367949 to 0.000367967
Heightened Def Con from 0.000370624 to 0.000370624
Heightened Def Con from 0.000372881 to 0.000372882
Heightened Def Con from 0.000372885 to 0.000372902
Heightened Def Con from 0.000375555 to 0.000375555
Heightened Def Con from 0.00037782 to 0.00037782
Heightened Def Con from 0.000380483 to 0.000380483
Heightened Def Con from 0.000382755 to 0.000382755
Heightened Def Con from 0.000382759 to 0.000382777
Heightened Def Con from 0.000385411 to 0.000385411
Heightened Def Con from 0.000387689 to 0.000387689
Heightened Def Con from 0.000387693 to 0.00038771
Heightened Def Con from 0.000390339 to 0.00039034
Heightened Def Con from 0.000390341 to 0.000390341
Heightened Def Con from 0.00039263 to 0.00039263
Heightened Def Con from 0.000395269 to 0.000395269
Heightened Def Con from 0.000397561 to 0.000397562
Heightened Def Con from 0.000397565 to 0.000397583
Heightened Def Con from 0.000400197 to 0.000400197
Heightened Def Con from 0.000402499 to 0.000402499
Heightened Def Con from 0.000405126 to 0.000405126
Heightened Def Con from 0.000407439 to 0.000407439
Heightened Def Con from 0.000407442 to 0.00040746
Heightened Def Con from 0.000410054 to 0.000410054
Heightened Def Con from 0.000410055 to 0.000410055
Heightened Def Con from 0.000412373 to 0.000412373
Heightened Def Con from 0.000414981 to 0.000414981
Heightened Def Con from 0.000414981 to 0.000414981
Heightened Def Con from 0.000414982 to 0.000414983
Heightened Def Con from 0.000417312 to 0.000417312
Heightened Def Con from 0.000417316 to 0.000417335
Heightened Def Con from 0.00041991 to 0.00041991
Heightened Def Con from 0.000419911 to 0.000419911
Heightened Def Con from 0.000422249 to 0.000422249
Heightened Def Con from 0.000424839 to 0.000424839
Heightened Def Con from 0.00042719 to 0.00042719
Heightened Def Con from 0.000427193 to 0.000427212
Heightened Def Con from 0.000429767 to 0.000429767
Heightened Def Con from 0.000432124 to 0.000432124
Heightened Def Con from 0.000432126 to 0.000432145
Heightened Def Con from 0.000434694 to 0.000434694
Heightened Def Con from 0.000434695 to 0.000434695
Heightened Def Con from 0.000437063 to 0.000437063
Heightened Def Con from 0.000437066 to 0.000437085
Heightened Def Con from 0.000439623 to 0.000439623
Heightened Def Con from 0.000441999 to 0.000441999
Heightened Def Con from 0.000442002 to 0.000442021
Heightened Def Con from 0.000444551 to 0.000444551
Heightened Def Con from 0.000446936 to 0.000446936
Heightened Def Con from 0.000449478 to 0.000449479
Heightened Def Con from 0.000451876 to 0.000451876
Heightened Def Con from 0.000451878 to 0.000451898
Heightened Def Con from 0.000454406 to 0.000454406
Heightened Def Con from 0.000456812 to 0.000456812
Heightened Def Con from 0.000456814 to 0.000456834
Heightened Def Con from 0.000459334 to 0.000459334
Heightened Def Con from 0.000459334 to 0.000459335
Heightened Def Con from 0.000461747 to 0.000461747
Heightened Def Con from 0.000461749 to 0.000461769
Heightened Def Con from 0.000464262 to 0.000464262
Heightened Def Con from 0.000466687 to 0.000466687
Heightened Def Con from 0.000466689 to 0.000466709
Heightened Def Con from 0.00046919 to 0.00046919
Heightened Def Con from 0.000471621 to 0.000471621
Heightened Def Con from 0.000471623 to 0.000471643
Heightened Def Con from 0.000474116 to 0.000474116
Heightened Def Con from 0.000474117 to 0.000474117
Heightened Def Con from 0.000476563 to 0.000476563
Heightened Def Con from 0.000479044 to 0.000479044
Heightened Def Con from 0.000481501 to 0.000481501
Heightened Def Con from 0.000483972 to 0.000483972
Heightened Def Con from 0.000486438 to 0.000486438
Heightened Def Con from 0.0004889 to 0.0004889
Heightened Def Con from 0.000491375 to 0.000491375
Heightened Def Con from 0.000493827 to 0.000493827
Heightened Def Con from 0.000493827 to 0.000493849
Heightened Def Con from 0.00049631 to 0.00049631
Heightened Def Con from 0.000498755 to 0.000498755
Heightened Def Con from 0.000498756 to 0.000498778
Heightened Def Con from 0.000501252 to 0.000501252
Heightened Def Con from 0.000503683 to 0.000503683
Heightened Def Con from 0.000503683 to 0.000503704
Heightened Def Con from 0.000506187 to 0.000506187
Heightened Def Con from 0.00050861 to 0.00050861
Heightened Def Con from 0.00050861 to 0.000508631
Heightened Def Con from 0.000511129 to 0.000511129
Heightened Def Con from 0.00051113 to 0.000511151
Heightened Def Con from 0.000513538 to 0.000513538
Heightened Def Con from 0.000513538 to 0.000513559
Heightened Def Con from 0.000516064 to 0.000516064
Heightened Def Con from 0.000518465 to 0.000518466
Heightened Def Con from 0.000518466 to 0.000518487
Heightened Def Con from 0.000521001 to 0.000521001
Heightened Def Con from 0.000521001 to 0.000521022
Heightened Def Con from 0.000523393 to 0.000523393
Heightened Def Con from 0.000523394 to 0.000523415
Heightened Def Con from 0.000525942 to 0.000525942
Heightened Def Con from 0.000525943 to 0.000525964
Heightened Def Con from 0.000528321 to 0.000528321
Heightened Def Con from 0.000528322 to 0.000528343
Heightened Def Con from 0.000530879 to 0.000530879
Heightened Def Con from 0.00053088 to 0.000530901
Heightened Def Con from 0.000533249 to 0.000533249
Heightened Def Con from 0.00053325 to 0.000533271
Heightened Def Con from 0.000535818 to 0.000535818
Heightened Def Con from 0.000535818 to 0.00053584
Heightened Def Con from 0.000538176 to 0.000538177
Heightened Def Con from 0.000540754 to 0.000540754
Heightened Def Con from 0.000540754 to 0.000540776
Heightened Def Con from 0.000543103 to 0.000543103
Heightened Def Con from 0.00054569 to 0.00054569
Heightened Def Con from 0.00054569 to 0.000545712
Heightened Def Con from 0.000548032 to 0.000548032
Heightened Def Con from 0.000550629 to 0.000550629
Heightened Def Con from 0.000550629 to 0.000550651
Heightened Def Con from 0.000552959 to 0.00055296
Heightened Def Con from 0.000555562 to 0.000555562
Heightened Def Con from 0.000555563 to 0.000555584
Heightened Def Con from 0.000557887 to 0.000557888
Heightened Def Con from 0.000557889 to 0.000557909
Heightened Def Con from 0.0005605 to 0.000560501
Heightened Def Con from 0.000562816 to 0.000562816
Heightened Def Con from 0.000565438 to 0.000565438
Heightened Def Con from 0.000565438 to 0.00056546
Heightened Def Con from 0.000567744 to 0.000567744
Heightened Def Con from 0.000567746 to 0.000567766
Heightened Def Con from 0.000570382 to 0.000570382
Heightened Def Con from 0.000572672 to 0.000572672
Heightened Def Con from 0.000575318 to 0.000575318
Heightened Def Con from 0.000575318 to 0.000575318
Heightened Def Con from 0.000577599 to 0.0005776
Heightened Def Con from 0.000577602 to 0.000577622
Heightened Def Con from 0.00058025 to 0.00058025
Heightened Def Con from 0.000582528 to 0.000582529
Heightened Def Con from 0.000582531 to 0.000582551
Heightened Def Con from 0.000585191 to 0.000585191
Heightened Def Con from 0.000587456 to 0.000587456
Heightened Def Con from 0.000590126 to 0.000590126
Heightened Def Con from 0.000590127 to 0.000590127
Heightened Def Con from 0.000592385 to 0.000592385
Heightened Def Con from 0.000595067 to 0.000595067
Heightened Def Con from 0.000595068 to 0.000595068
Heightened Def Con from 0.000597313 to 0.000597313
Heightened Def Con from 0.000597316 to 0.000597335
Heightened Def Con from 0.000600004 to 0.000600004
Heightened Def Con from 0.000600004 to 0.000600004
Heightened Def Con from 0.000602241 to 0.000602242
Heightened Def Con from 0.000602244 to 0.000602263
Heightened Def Con from 0.000604938 to 0.000604938
Heightened Def Con from 0.000604938 to 0.000604938
Heightened Def Con from 0.00060717 to 0.000607171
Heightened Def Con from 0.000609876 to 0.000609876
Heightened Def Con from 0.000609877 to 0.000609877
Heightened Def Con from 0.000612099 to 0.000612099
Heightened Def Con from 0.000614812 to 0.000614812
Heightened Def Con from 0.000614813 to 0.000614813
Heightened Def Con from 0.000617028 to 0.000617028
Heightened Def Con from 0.000619743 to 0.000619743
Heightened Def Con from 0.000619744 to 0.000619766
Heightened Def Con from 0.000621957 to 0.000621957
Heightened Def Con from 0.00062196 to 0.000621978
Heightened Def Con from 0.000624685 to 0.000624685
Heightened Def Con from 0.000624686 to 0.000624686
Heightened Def Con from 0.000626886 to 0.000626886
Heightened Def Con from 0.000629622 to 0.000629622
Heightened Def Con from 0.000631814 to 0.000631815
Heightened Def Con from 0.000631818 to 0.000631837
Heightened Def Con from 0.000634558 to 0.000634558
Heightened Def Con from 0.000636744 to 0.000636744
Heightened Def Con from 0.000636748 to 0.000636766
Heightened Def Con from 0.000639491 to 0.000639491
Heightened Def Con from 0.000639492 to 0.000639492
Heightened Def Con from 0.000641672 to 0.000641672
Heightened Def Con from 0.000641676 to 0.000641694
Heightened Def Con from 0.000644428 to 0.000644429
Heightened Def Con from 0.000646606 to 0.000646624
Heightened Def Con from 0.000649363 to 0.000649363
Heightened Def Con from 0.000651532 to 0.000651532
Heightened Def Con from 0.000651535 to 0.000651553
Heightened Def Con from 0.0006543 to 0.0006543
Heightened Def Con from 0.000656462 to 0.000656462
Heightened Def Con from 0.000659237 to 0.000659237
Heightened Def Con from 0.000661392 to 0.000661392
Heightened Def Con from 0.00066417 to 0.00066417
Heightened Def Con from 0.000664171 to 0.000664172
Heightened Def Con from 0.000666322 to 0.000666322
Heightened Def Con from 0.000669106 to 0.000669106
Heightened Def Con from 0.000669107 to 0.000669107
Heightened Def Con from 0.000671251 to 0.000671251
Heightened Def Con from 0.000674038 to 0.000674039
Heightened Def Con from 0.000676181 to 0.000676181
Heightened Def Con from 0.000678977 to 0.000678977
Heightened Def Con from 0.000681112 to 0.000681112
Heightened Def Con from 0.00068391 to 0.00068391
Heightened Def Con from 0.000686042 to 0.000686042
Heightened Def Con from 0.000688845 to 0.000688845
Heightened Def Con from 0.000688846 to 0.000688846
Heightened Def Con from 0.000690972 to 0.000690972
Heightened Def Con from 0.000693781 to 0.000693781
Heightened Def Con from 0.000695903 to 0.000695903
Heightened Def Con from 0.000698713 to 0.000698713
Heightened Def Con from 0.000700834 to 0.000700834
Heightened Def Con from 0.000703648 to 0.000703648
Heightened Def Con from 0.000703649 to 0.000703649
Heightened Def Con from 0.000705765 to 0.000705765
Heightened Def Con from 0.000708578 to 0.000708578
Heightened Def Con from 0.000708579 to 0.000708579
Heightened Def Con from 0.000710696 to 0.000710696
Heightened Def Con from 0.000713512 to 0.000713512
Heightened Def Con from 0.000715627 to 0.000715628
Heightened Def Con from 0.000718448 to 0.000718448
Heightened Def Con from 0.000720559 to 0.00072056
Heightened Def Con from 0.00072338 to 0.00072338
Heightened Def Con from 0.000723381 to 0.000723381
Heightened Def Con from 0.000725491 to 0.000725491
Heightened Def Con from 0.000728314 to 0.000728315
Heightened Def Con from 0.000728316 to 0.000728316
Heightened Def Con from 0.000730421 to 0.000730421
Heightened Def Con from 0.000733246 to 0.000733246
Heightened Def Con from 0.000735355 to 0.000735356
Heightened Def Con from 0.000738181 to 0.000738181
Heightened Def Con from 0.000738182 to 0.000738182
Heightened Def Con from 0.000740287 to 0.000740287
Heightened Def Con from 0.000743111 to 0.000743111
Heightened Def Con from 0.000743112 to 0.000743112
Heightened Def Con from 0.000745219 to 0.000745219
Heightened Def Con from 0.000748044 to 0.000748044
Heightened Def Con from 0.000748045 to 0.000748045
Heightened Def Con from 0.000750152 to 0.000750152
Heightened Def Con from 0.000752976 to 0.000752976
Heightened Def Con from 0.000752978 to 0.000752978
Heightened Def Con from 0.000755085 to 0.000755085
Heightened Def Con from 0.00075791 to 0.00075791
Heightened Def Con from 0.000759991 to 0.000760014
Heightened Def Con from 0.000760016 to 0.000760016
Heightened Def Con from 0.000762842 to 0.000762843
Heightened Def Con from 0.000762843 to 0.000762843
Heightened Def Con from 0.00076495 to 0.00076495
Heightened Def Con from 0.000767771 to 0.000767771
Heightened Def Con from 0.000767772 to 0.000767773
Heightened Def Con from 0.000772704 to 0.000772704
Heightened Def Con from 0.000772705 to 0.000772705
Heightened Def Con from 0.000774815 to 0.000774815
Heightened Def Con from 0.000777636 to 0.000777636
Heightened Def Con from 0.000779749 to 0.000779749
Heightened Def Con from 0.000782567 to 0.000782567
Heightened Def Con from 0.000784681 to 0.000784682
Heightened Def Con from 0.000787495 to 0.000787495
Heightened Def Con from 0.000787496 to 0.000787496
Heightened Def Con from 0.000789616 to 0.000789616
Heightened Def Con from 0.00079243 to 0.00079243
Heightened Def Con from 0.000794549 to 0.000794549
Heightened Def Con from 0.000797362 to 0.000797362
Heightened Def Con from 0.000797363 to 0.000797364
Heightened Def Con from 0.000799483 to 0.000799483
Heightened Def Con from 0.000802286 to 0.000802286
Heightened Def Con from 0.000802287 to 0.000802287
Heightened Def Con from 0.000804417 to 0.000804417
Heightened Def Con from 0.000807221 to 0.000807221
Heightened Def Con from 0.000807222 to 0.000807222
Heightened Def Con from 0.000809351 to 0.000809351
Heightened Def Con from 0.00081215 to 0.00081215
Heightened Def Con from 0.000812151 to 0.000812151
Heightened Def Con from 0.000814285 to 0.000814285
Heightened Def Con from 0.000817082 to 0.000817082
Heightened Def Con from 0.000817083 to 0.000817084
Heightened Def Con from 0.000819219 to 0.000819219
Heightened Def Con from 0.000822012 to 0.000822012
Heightened Def Con from 0.000822013 to 0.000822013
Heightened Def Con from 0.000824154 to 0.000824154
Heightened Def Con from 0.000826941 to 0.000826941
Heightened Def Con from 0.000826942 to 0.000826942
Heightened Def Con from 0.000829089 to 0.000829089
Heightened Def Con from 0.000831871 to 0.000831871
Heightened Def Con from 0.000831872 to 0.000831872
Heightened Def Con from 0.000834024 to 0.000834024
Heightened Def Con from 0.0008368 to 0.0008368
Heightened Def Con from 0.000838958 to 0.000838958
Heightened Def Con from 0.000838961 to 0.000838979
Heightened Def Con from 0.000841727 to 0.000841728
Heightened Def Con from 0.000841729 to 0.000841729
Heightened Def Con from 0.000843893 to 0.000843894
Heightened Def Con from 0.000846661 to 0.000846661
Heightened Def Con from 0.000848828 to 0.000848828
Heightened Def Con from 0.000851585 to 0.000851585
Heightened Def Con from 0.000851586 to 0.000851586
Heightened Def Con from 0.000853763 to 0.000853763
Heightened Def Con from 0.000856519 to 0.000856519
Heightened Def Con from 0.00085652 to 0.00085652
Heightened Def Con from 0.000858699 to 0.0008587
Heightened Def Con from 0.000858703 to 0.000858721
Heightened Def Con from 0.000861447 to 0.000861447
Heightened Def Con from 0.000863634 to 0.000863635
Heightened Def Con from 0.000863638 to 0.000863657
Heightened Def Con from 0.000866377 to 0.000866377
Heightened Def Con from 0.00086857 to 0.00086857
Heightened Def Con from 0.000871304 to 0.000871304
Heightened Def Con from 0.000871304 to 0.000871305
Heightened Def Con from 0.000873506 to 0.000873506
Heightened Def Con from 0.000873509 to 0.000873528
Heightened Def Con from 0.000876233 to 0.000876233
Heightened Def Con from 0.000878442 to 0.000878442
Heightened Def Con from 0.000878445 to 0.000878464
Heightened Def Con from 0.000881164 to 0.000881165
Heightened Def Con from 0.000883378 to 0.000883378
Heightened Def Con from 0.000883381 to 0.000883399
Heightened Def Con from 0.000886086 to 0.000886087
Heightened Def Con from 0.000886087 to 0.000886087
Heightened Def Con from 0.000888313 to 0.000888314
Heightened Def Con from 0.000888317 to 0.000888336
Heightened Def Con from 0.000891017 to 0.000891017
Heightened Def Con from 0.000891018 to 0.000891018
Heightened Def Con from 0.000893249 to 0.000893249
Heightened Def Con from 0.000893252 to 0.000893271
Heightened Def Con from 0.000895945 to 0.000895945
Heightened Def Con from 0.000895945 to 0.000895946
Heightened Def Con from 0.000898186 to 0.000898186
Heightened Def Con from 0.000898188 to 0.000898207
Heightened Def Con from 0.000900869 to 0.000900869
Heightened Def Con from 0.000900869 to 0.00090087
Heightened Def Con from 0.000903123 to 0.000903123
Heightened Def Con from 0.000905801 to 0.000905801
Heightened Def Con from 0.000905801 to 0.000905823
Heightened Def Con from 0.000908058 to 0.000908059
Heightened Def Con from 0.000910731 to 0.000910731
Heightened Def Con from 0.000910732 to 0.000910732
Heightened Def Con from 0.000912994 to 0.000912995
Heightened Def Con from 0.000915656 to 0.000915656
Heightened Def Con from 0.000915656 to 0.000915657
Heightened Def Con from 0.000917932 to 0.000917932
Heightened Def Con from 0.000920584 to 0.000920584
Heightened Def Con from 0.000920584 to 0.000920584
Heightened Def Con from 0.000922867 to 0.000922867
Heightened Def Con from 0.000922869 to 0.000922889
Heightened Def Con from 0.000925512 to 0.000925513
Heightened Def Con from 0.000925513 to 0.000925535
Heightened Def Con from 0.000927805 to 0.000927805
Heightened Def Con from 0.000927807 to 0.000927827
Heightened Def Con from 0.000930436 to 0.000930436
Heightened Def Con from 0.000932742 to 0.000932742
Heightened Def Con from 0.000935368 to 0.000935368
Heightened Def Con from 0.000935368 to 0.00093539
Heightened Def Con from 0.000937679 to 0.000937679
Heightened Def Con from 0.000940296 to 0.000940296
Heightened Def Con from 0.000942615 to 0.000942615
Heightened Def Con from 0.00094522 to 0.00094522
Heightened Def Con from 0.00094522 to 0.000945242
Heightened Def Con from 0.000947552 to 0.000947553
Heightened Def Con from 0.000947554 to 0.000947574
Heightened Def Con from 0.00095015 to 0.00095015
Heightened Def Con from 0.00095015 to 0.000950172
Heightened Def Con from 0.000952488 to 0.000952488
Heightened Def Con from 0.000955075 to 0.000955076
Heightened Def Con from 0.000955076 to 0.000955098
Heightened Def Con from 0.000957426 to 0.000957426
Heightened Def Con from 0.000960004 to 0.000960004
Heightened Def Con from 0.000962363 to 0.000962363
Heightened Def Con from 0.000962364 to 0.000962385
Heightened Def Con from 0.000964927 to 0.000964927
Heightened Def Con from 0.000967301 to 0.000967301
Heightened Def Con from 0.000969856 to 0.000969856
Heightened Def Con from 0.000972238 to 0.000972238
Heightened Def Con from 0.000972239 to 0.00097226
Heightened Def Con from 0.000974786 to 0.000974786
Heightened Def Con from 0.000974786 to 0.000974807
Heightened Def Con from 0.000977174 to 0.000977174
Heightened Def Con from 0.000979706 to 0.000979706
Heightened Def Con from 0.000979707 to 0.000979728
Heightened Def Con from 0.000982112 to 0.000982112
Heightened Def Con from 0.000982112 to 0.000982133
Heightened Def Con from 0.000984637 to 0.000984637
Heightened Def Con from 0.00098705 to 0.00098705
Heightened Def Con from 0.000989566 to 0.000989566
Heightened Def Con from 0.000989567 to 0.000989588
Heightened Def Con from 0.000991987 to 0.000991987
Heightened Def Con from 0.000991987 to 0.000992008
Heightened Def Con from 0.000994493 to 0.000994493
Heightened Def Con from 0.000996924 to 0.000996924
Heightened Def Con from 0.000996925 to 0.000996946
Heightened Def Con from 0.000999419 to 0.000999419
Heightened Def Con from 0.00099942 to 0.00099944
Heightened Def Con from 0.00100186 to 0.00100186
Heightened Def Con from 0.00100186 to 0.00100188
Heightened Def Con from 0.00100434 to 0.00100434
Heightened Def Con from 0.00100435 to 0.00100437
Heightened Def Con from 0.0010068 to 0.0010068
Heightened Def Con from 0.0010068 to 0.00100682
Heightened Def Con from 0.00100927 to 0.00100927
Heightened Def Con from 0.00101174 to 0.00101174
Heightened Def Con from 0.0010142 to 0.0010142
Heightened Def Con from 0.00101667 to 0.00101667
Heightened Def Con from 0.00101912 to 0.00101912
Heightened Def Con from 0.00101912 to 0.00101914
Heightened Def Con from 0.00102161 to 0.00102161
Heightened Def Con from 0.00102161 to 0.00102161
Heightened Def Con from 0.00102405 to 0.00102405
Heightened Def Con from 0.00102405 to 0.00102407
Heightened Def Con from 0.00102655 to 0.00102655
Heightened Def Con from 0.00102655 to 0.00102655
Heightened Def Con from 0.00102898 to 0.00102898
Heightened Def Con from 0.00102898 to 0.001029
Heightened Def Con from 0.00103148 to 0.00103148
Heightened Def Con from 0.00103148 to 0.00103148
Heightened Def Con from 0.00103391 to 0.00103391
Heightened Def Con from 0.00103391 to 0.00103393
Heightened Def Con from 0.00103642 to 0.00103642
Heightened Def Con from 0.00103642 to 0.00103642
Heightened Def Con from 0.00103883 to 0.00103883
Heightened Def Con from 0.00103883 to 0.00103885
Heightened Def Con from 0.00104136 to 0.00104136
Heightened Def Con from 0.00104136 to 0.00104136
Heightened Def Con from 0.00104376 to 0.00104376
Heightened Def Con from 0.00104376 to 0.00104378
Heightened Def Con from 0.00104629 to 0.00104629
Heightened Def Con from 0.00104629 to 0.00104629
Heightened Def Con from 0.00104869 to 0.00104869
Heightened Def Con from 0.00105123 to 0.00105123
Heightened Def Con from 0.00105361 to 0.00105361
Heightened Def Con from 0.00105362 to 0.00105364
Heightened Def Con from 0.00105617 to 0.00105617
Heightened Def Con from 0.00105617 to 0.00105617
Heightened Def Con from 0.00105854 to 0.00105854
Heightened Def Con from 0.00105855 to 0.00105857
Heightened Def Con from 0.00106111 to 0.00106111
Heightened Def Con from 0.00106111 to 0.00106111
Heightened Def Con from 0.00106347 to 0.00106347
Heightened Def Con from 0.00106347 to 0.00106349
Heightened Def Con from 0.00106604 to 0.00106604
Heightened Def Con from 0.00106604 to 0.00106604
Heightened Def Con from 0.00106839 to 0.00106839
Heightened Def Con from 0.0010684 to 0.00106842
Heightened Def Con from 0.00107098 to 0.00107098
Heightened Def Con from 0.00107098 to 0.00107098
Heightened Def Con from 0.00107332 to 0.00107332
Heightened Def Con from 0.00107333 to 0.00107335
Heightened Def Con from 0.00107592 to 0.00107592
Heightened Def Con from 0.00107592 to 0.00107592
Heightened Def Con from 0.00107825 to 0.00107825
Heightened Def Con from 0.00108085 to 0.00108085
Heightened Def Con from 0.00108318 to 0.00108318
Heightened Def Con from 0.00108579 to 0.00108579
Heightened Def Con from 0.00108579 to 0.00108579
Heightened Def Con from 0.00108811 to 0.00108811
Heightened Def Con from 0.00108811 to 0.00108813
Heightened Def Con from 0.00109073 to 0.00109073
Heightened Def Con from 0.00109073 to 0.00109073
Heightened Def Con from 0.00109303 to 0.00109303
Heightened Def Con from 0.00109566 to 0.00109566
Heightened Def Con from 0.00109566 to 0.00109566
Heightened Def Con from 0.00109796 to 0.00109796
Heightened Def Con from 0.00109797 to 0.00109798
Heightened Def Con from 0.0011006 to 0.0011006
Heightened Def Con from 0.00110289 to 0.00110289
Heightened Def Con from 0.0011029 to 0.00110292
Heightened Def Con from 0.00110553 to 0.00110553
Heightened Def Con from 0.00110554 to 0.00110554
Heightened Def Con from 0.00110782 to 0.00110782
Heightened Def Con from 0.00110782 to 0.00110784
Heightened Def Con from 0.00111047 to 0.00111047
Heightened Def Con from 0.00111047 to 0.00111047
Heightened Def Con from 0.00111275 to 0.00111275
Heightened Def Con from 0.00111275 to 0.00111277
Heightened Def Con from 0.00111541 to 0.00111541
Heightened Def Con from 0.00111767 to 0.00111767
Heightened Def Con from 0.00112034 to 0.00112034
Heightened Def Con from 0.0011226 to 0.0011226
Heightened Def Con from 0.00112528 to 0.00112528
Heightened Def Con from 0.00112528 to 0.00112528
Heightened Def Con from 0.00112753 to 0.00112753
Heightened Def Con from 0.00112753 to 0.00112755
Heightened Def Con from 0.00113022 to 0.00113022
Heightened Def Con from 0.00113246 to 0.00113246
Heightened Def Con from 0.00113515 to 0.00113515
Heightened Def Con from 0.00113515 to 0.00113515
Heightened Def Con from 0.00113739 to 0.00113739
Heightened Def Con from 0.00113739 to 0.00113739
Heightened Def Con from 0.00114009 to 0.00114009
Heightened Def Con from 0.00114231 to 0.00114231
Heightened Def Con from 0.00114502 to 0.00114502
Heightened Def Con from 0.00114724 to 0.00114724
Heightened Def Con from 0.00114995 to 0.00114996
Heightened Def Con from 0.00114996 to 0.00114996
Heightened Def Con from 0.00115218 to 0.00115218
Heightened Def Con from 0.00115218 to 0.00115218
Heightened Def Con from 0.00115489 to 0.00115489
Heightened Def Con from 0.00115711 to 0.00115711
Heightened Def Con from 0.00115983 to 0.00115983
Heightened Def Con from 0.00116203 to 0.00116203
Heightened Def Con from 0.00116476 to 0.00116476
Heightened Def Con from 0.00116476 to 0.00116476
Heightened Def Con from 0.00116696 to 0.00116696
Heightened Def Con from 0.0011697 to 0.0011697
Heightened Def Con from 0.00117189 to 0.00117189
Heightened Def Con from 0.00117463 to 0.00117463
Heightened Def Con from 0.00117463 to 0.00117463
Heightened Def Con from 0.00117682 to 0.00117682
Heightened Def Con from 0.00117956 to 0.00117956
Heightened Def Con from 0.00117957 to 0.00117957
Heightened Def Con from 0.00118175 to 0.00118175
Heightened Def Con from 0.0011845 to 0.0011845
Heightened Def Con from 0.00118669 to 0.00118669
Heightened Def Con from 0.00118943 to 0.00118943
Heightened Def Con from 0.00118943 to 0.00118943
Heightened Def Con from 0.00119162 to 0.00119162
Heightened Def Con from 0.00119437 to 0.00119437
Heightened Def Con from 0.00119437 to 0.00119437
Heightened Def Con from 0.00119654 to 0.00119654
Heightened Def Con from 0.0011993 to 0.0011993
Heightened Def Con from 0.0011993 to 0.0011993
Heightened Def Con from 0.00120147 to 0.00120147
Heightened Def Con from 0.00120423 to 0.00120424
Heightened Def Con from 0.00120424 to 0.00120424
Heightened Def Con from 0.0012064 to 0.0012064
Heightened Def Con from 0.00120917 to 0.00120917
Heightened Def Con from 0.00120917 to 0.00120917
Heightened Def Con from 0.00121134 to 0.00121134
Heightened Def Con from 0.0012141 to 0.0012141
Heightened Def Con from 0.0012141 to 0.00121411
Heightened Def Con from 0.00121626 to 0.00121626
Heightened Def Con from 0.00121904 to 0.00121904
Heightened Def Con from 0.0012212 to 0.0012212
Heightened Def Con from 0.00122397 to 0.00122397
Heightened Def Con from 0.00122613 to 0.00122613
Heightened Def Con from 0.0012289 to 0.0012289
Heightened Def Con from 0.00123106 to 0.00123106
Heightened Def Con from 0.001236 to 0.001236
Heightened Def Con from 0.00123877 to 0.00123877
Heightened Def Con from 0.00123877 to 0.00123877
Heightened Def Con from 0.00124093 to 0.00124093
Heightened Def Con from 0.0012437 to 0.0012437
Heightened Def Con from 0.00124586 to 0.00124586
Heightened Def Con from 0.00124863 to 0.00124863
Heightened Def Con from 0.00124863 to 0.00124863
Heightened Def Con from 0.00125079 to 0.00125079
Heightened Def Con from 0.00125357 to 0.00125357
Heightened Def Con from 0.00125572 to 0.00125572
Heightened Def Con from 0.0012585 to 0.0012585
Heightened Def Con from 0.0012585 to 0.0012585
Heightened Def Con from 0.00126065 to 0.00126065
Heightened Def Con from 0.00126343 to 0.00126343
Heightened Def Con from 0.00126559 to 0.00126559
Heightened Def Con from 0.00126836 to 0.00126836
Heightened Def Con from 0.00126836 to 0.00126836
Heightened Def Con from 0.00127052 to 0.00127052
Heightened Def Con from 0.00127329 to 0.00127329
Heightened Def Con from 0.0012733 to 0.0012733
Heightened Def Con from 0.00127546 to 0.00127546
Heightened Def Con from 0.00127823 to 0.00127823
Heightened Def Con from 0.00128039 to 0.00128039
Heightened Def Con from 0.00128316 to 0.00128316
Heightened Def Con from 0.00128316 to 0.00128316
Heightened Def Con from 0.00128532 to 0.00128532
Heightened Def Con from 0.00128809 to 0.00128809
Heightened Def Con from 0.00128809 to 0.00128809
Heightened Def Con from 0.00129025 to 0.00129025
Heightened Def Con from 0.00129302 to 0.00129302
Heightened Def Con from 0.00129519 to 0.00129519
Heightened Def Con from 0.00129795 to 0.00129795
Heightened Def Con from 0.00129795 to 0.00129795
Heightened Def Con from 0.00130012 to 0.00130012
Heightened Def Con from 0.00130288 to 0.00130288
Heightened Def Con from 0.00130506 to 0.00130506
Heightened Def Con from 0.00130781 to 0.00130781
Heightened Def Con from 0.00130781 to 0.00130781
Heightened Def Con from 0.00130999 to 0.00130999
Heightened Def Con from 0.00131274 to 0.00131274
Heightened Def Con from 0.00131274 to 0.00131275
Heightened Def Con from 0.00131767 to 0.00131767
Heightened Def Con from 0.00131767 to 0.00131767
Heightened Def Con from 0.00131986 to 0.00131986
Heightened Def Con from 0.0013226 to 0.00132261
Heightened Def Con from 0.0013248 to 0.0013248
Heightened Def Con from 0.00132753 to 0.00132753
Heightened Def Con from 0.00132753 to 0.00132753
Heightened Def Con from 0.00132973 to 0.00132973
Heightened Def Con from 0.00133246 to 0.00133246
Heightened Def Con from 0.00133247 to 0.00133247
Heightened Def Con from 0.00133466 to 0.00133466
Heightened Def Con from 0.00133739 to 0.00133739
Heightened Def Con from 0.0013396 to 0.0013396
Heightened Def Con from 0.00134232 to 0.00134232
Heightened Def Con from 0.00134454 to 0.00134454
Heightened Def Con from 0.00134725 to 0.00134725
Heightened Def Con from 0.00134725 to 0.00134725
Heightened Def Con from 0.00134947 to 0.00134947
Heightened Def Con from 0.00135218 to 0.00135218
Heightened Def Con from 0.00135218 to 0.00135218
Heightened Def Con from 0.0013544 to 0.0013544
Heightened Def Con from 0.00135711 to 0.00135711
Heightened Def Con from 0.00135934 to 0.00135934
Heightened Def Con from 0.00136204 to 0.00136204
Heightened Def Con from 0.00136204 to 0.00136204
Heightened Def Con from 0.00136428 to 0.00136428
Heightened Def Con from 0.00136428 to 0.0013643
Heightened Def Con from 0.00136697 to 0.00136697
Heightened Def Con from 0.00136697 to 0.00136697
Heightened Def Con from 0.00136921 to 0.00136921
Heightened Def Con from 0.00136921 to 0.00136923
Heightened Def Con from 0.0013719 to 0.0013719
Heightened Def Con from 0.0013719 to 0.0013719
Heightened Def Con from 0.00137415 to 0.00137415
Heightened Def Con from 0.00137683 to 0.00137683
Heightened Def Con from 0.00137909 to 0.00137909
Heightened Def Con from 0.00138176 to 0.00138176
Heightened Def Con from 0.00138176 to 0.00138176
Heightened Def Con from 0.00138402 to 0.00138402
Heightened Def Con from 0.00138669 to 0.00138669
Heightened Def Con from 0.00138669 to 0.00138669
Heightened Def Con from 0.00138896 to 0.00138896
Heightened Def Con from 0.00138896 to 0.00138898
Heightened Def Con from 0.00139162 to 0.00139162
Heightened Def Con from 0.00139389 to 0.00139389
Heightened Def Con from 0.00139655 to 0.00139655
Heightened Def Con from 0.00139883 to 0.00139883
Heightened Def Con from 0.00139883 to 0.00139885
Heightened Def Con from 0.00140147 to 0.00140147
Heightened Def Con from 0.00140147 to 0.00140147
Heightened Def Con from 0.00140377 to 0.00140377
Heightened Def Con from 0.00140377 to 0.00140379
Heightened Def Con from 0.0014064 to 0.0014064
Heightened Def Con from 0.00140871 to 0.00140871
Heightened Def Con from 0.00141133 to 0.00141133
Heightened Def Con from 0.00141365 to 0.00141365
Heightened Def Con from 0.00141365 to 0.00141367
Heightened Def Con from 0.00141626 to 0.00141626
Heightened Def Con from 0.00141626 to 0.00141626
Heightened Def Con from 0.00141626 to 0.00141626
Heightened Def Con from 0.00141858 to 0.00141858
Heightened Def Con from 0.00141858 to 0.0014186
Heightened Def Con from 0.00142119 to 0.00142119
Heightened Def Con from 0.00142352 to 0.00142352
Heightened Def Con from 0.00142612 to 0.00142612
Heightened Def Con from 0.00142612 to 0.00142612
Heightened Def Con from 0.00142845 to 0.00142845
Heightened Def Con from 0.00142846 to 0.00142847
Heightened Def Con from 0.00143105 to 0.00143105
Heightened Def Con from 0.00143339 to 0.00143339
Heightened Def Con from 0.0014334 to 0.00143342
Heightened Def Con from 0.00143597 to 0.00143597
Heightened Def Con from 0.00143833 to 0.00143833
Heightened Def Con from 0.00143833 to 0.00143835
Heightened Def Con from 0.0014409 to 0.0014409
Heightened Def Con from 0.00144327 to 0.00144327
Heightened Def Con from 0.00144327 to 0.00144329
Heightened Def Con from 0.00144583 to 0.00144583
Heightened Def Con from 0.00144583 to 0.00144583
Heightened Def Con from 0.00144821 to 0.00144821
Heightened Def Con from 0.00144821 to 0.00144823
Heightened Def Con from 0.00145076 to 0.00145076
Heightened Def Con from 0.00145315 to 0.00145315
Heightened Def Con from 0.00145568 to 0.00145568
Heightened Def Con from 0.00145808 to 0.00145808
Heightened Def Con from 0.00146061 to 0.00146061
Heightened Def Con from 0.00146061 to 0.00146061
Heightened Def Con from 0.00146302 to 0.00146302
Heightened Def Con from 0.00146302 to 0.00146304
Heightened Def Con from 0.00146554 to 0.00146554
Heightened Def Con from 0.00146796 to 0.00146796
Heightened Def Con from 0.00146796 to 0.00146798
Heightened Def Con from 0.00147044 to 0.00147047
Heightened Def Con from 0.00147047 to 0.00147047
Heightened Def Con from 0.00147047 to 0.00147047
Heightened Def Con from 0.00147047 to 0.00147049
Heightened Def Con from 0.00147289 to 0.00147289
Heightened Def Con from 0.0014729 to 0.00147292
Heightened Def Con from 0.0014754 to 0.0014754
Heightened Def Con from 0.0014754 to 0.0014754
Heightened Def Con from 0.00147783 to 0.00147783
Heightened Def Con from 0.00148032 to 0.00148032
Heightened Def Con from 0.00148277 to 0.00148277
Heightened Def Con from 0.00148525 to 0.00148525
Heightened Def Con from 0.00148525 to 0.00148525
Heightened Def Con from 0.00148771 to 0.00148771
Heightened Def Con from 0.00149018 to 0.00149018
Heightened Def Con from 0.00149265 to 0.00149265
Heightened Def Con from 0.00149265 to 0.00149267
Heightened Def Con from 0.00149511 to 0.00149511
Heightened Def Con from 0.00149758 to 0.00149758
Heightened Def Con from 0.00150003 to 0.00150003
Heightened Def Con from 0.00150003 to 0.00150006
Heightened Def Con from 0.00150252 to 0.00150252
Heightened Def Con from 0.00150252 to 0.00150254
Heightened Def Con from 0.00150496 to 0.00150496
Heightened Def Con from 0.00150496 to 0.00150498
Heightened Def Con from 0.00150746 to 0.00150746
Heightened Def Con from 0.00150746 to 0.00150748
Heightened Def Con from 0.00150989 to 0.00150989
Heightened Def Con from 0.00150989 to 0.00150991
Heightened Def Con from 0.0015124 to 0.0015124
Heightened Def Con from 0.0015124 to 0.00151242
Heightened Def Con from 0.00151482 to 0.00151482
Heightened Def Con from 0.00151482 to 0.00151484
Heightened Def Con from 0.00151733 to 0.00151733
Heightened Def Con from 0.00151733 to 0.00151736
Heightened Def Con from 0.00151974 to 0.00151974
Heightened Def Con from 0.00151974 to 0.00151977
Heightened Def Con from 0.00152227 to 0.00152227
Heightened Def Con from 0.00152227 to 0.00152229
Heightened Def Con from 0.00152467 to 0.00152467
Heightened Def Con from 0.00152467 to 0.00152469
Heightened Def Con from 0.00152721 to 0.00152721
Heightened Def Con from 0.0015296 to 0.0015296
Heightened Def Con from 0.0015296 to 0.00152962
Heightened Def Con from 0.00153215 to 0.00153215
Heightened Def Con from 0.00153215 to 0.00153217
Heightened Def Con from 0.00153453 to 0.00153453
Heightened Def Con from 0.00153453 to 0.00153455
Heightened Def Con from 0.00153709 to 0.00153709
Heightened Def Con from 0.00153945 to 0.00153945
Heightened Def Con from 0.00154202 to 0.00154202
Heightened Def Con from 0.00154202 to 0.00154204
Heightened Def Con from 0.00154438 to 0.00154438
Heightened Def Con from 0.00154438 to 0.0015444
Heightened Def Con from 0.00154696 to 0.00154696
Heightened Def Con from 0.00154696 to 0.00154698
Heightened Def Con from 0.00154931 to 0.00154931
Heightened Def Con from 0.0015519 to 0.0015519
Heightened Def Con from 0.0015519 to 0.00155192
Heightened Def Con from 0.00155424 to 0.00155424
Heightened Def Con from 0.00155684 to 0.00155684
Heightened Def Con from 0.00155684 to 0.00155686
Heightened Def Con from 0.00155917 to 0.00155917
Heightened Def Con from 0.00155917 to 0.00155919
Heightened Def Con from 0.00156178 to 0.00156178
Heightened Def Con from 0.00156409 to 0.00156409
Heightened Def Con from 0.00156671 to 0.00156671
Heightened Def Con from 0.00156671 to 0.00156674
Heightened Def Con from 0.00156902 to 0.00156902
Heightened Def Con from 0.00157165 to 0.00157165
Heightened Def Con from 0.00157165 to 0.00157167
Heightened Def Con from 0.00157395 to 0.00157395
Heightened Def Con from 0.00157395 to 0.00157397
Heightened Def Con from 0.00157659 to 0.00157659
Heightened Def Con from 0.00157659 to 0.00157659
Heightened Def Con from 0.00157888 to 0.00157888
Heightened Def Con from 0.00158152 to 0.00158152
Heightened Def Con from 0.00158381 to 0.00158381
Heightened Def Con from 0.00158381 to 0.00158383
Heightened Def Con from 0.00158646 to 0.00158646
Heightened Def Con from 0.00158873 to 0.00158873
Heightened Def Con from 0.00158874 to 0.00158876
Heightened Def Con from 0.0015914 to 0.0015914
Heightened Def Con from 0.0015914 to 0.0015914
Heightened Def Con from 0.00159366 to 0.00159366
Heightened Def Con from 0.00159367 to 0.00159368
Heightened Def Con from 0.00159633 to 0.00159633
Heightened Def Con from 0.00159633 to 0.00159633
Heightened Def Con from 0.00159859 to 0.00159859
Heightened Def Con from 0.00160127 to 0.00160128
Heightened Def Con from 0.00160128 to 0.00160128
Heightened Def Con from 0.00160352 to 0.00160352
Heightened Def Con from 0.00160352 to 0.00160354
Heightened Def Con from 0.00160621 to 0.00160621
Heightened Def Con from 0.00160621 to 0.00160621
Heightened Def Con from 0.00160845 to 0.00160845
Heightened Def Con from 0.00160845 to 0.00160847
Heightened Def Con from 0.00161115 to 0.00161115
Heightened Def Con from 0.00161115 to 0.00161115
Heightened Def Con from 0.00161338 to 0.00161338
Heightened Def Con from 0.00161608 to 0.00161608
Heightened Def Con from 0.00161831 to 0.00161831
Heightened Def Con from 0.00162102 to 0.00162102
Heightened Def Con from 0.00162102 to 0.00162102
Heightened Def Con from 0.00162324 to 0.00162324
Heightened Def Con from 0.00162324 to 0.00162326
Heightened Def Con from 0.00162596 to 0.00162596
Heightened Def Con from 0.00162596 to 0.00162596
Heightened Def Con from 0.00162816 to 0.00162816
Heightened Def Con from 0.00163089 to 0.00163089
Heightened Def Con from 0.00163089 to 0.00163089
Heightened Def Con from 0.00163309 to 0.00163309
Heightened Def Con from 0.0016331 to 0.00163312
Heightened Def Con from 0.00163583 to 0.00163583
Heightened Def Con from 0.00163802 to 0.00163802
Heightened Def Con from 0.00163803 to 0.00163804
Heightened Def Con from 0.00164076 to 0.00164076
Heightened Def Con from 0.00164076 to 0.00164076
Heightened Def Con from 0.00164295 to 0.00164295
Heightened Def Con from 0.00164295 to 0.00164297
Heightened Def Con from 0.0016457 to 0.0016457
Heightened Def Con from 0.00164788 to 0.00164788
Heightened Def Con from 0.00164789 to 0.0016479
Heightened Def Con from 0.00165063 to 0.00165063
Heightened Def Con from 0.00165064 to 0.00165064
Heightened Def Con from 0.00165281 to 0.00165281
Heightened Def Con from 0.00165282 to 0.00165283
Heightened Def Con from 0.00165557 to 0.00165557
Heightened Def Con from 0.00165557 to 0.00165557
Heightened Def Con from 0.00165774 to 0.00165774
Heightened Def Con from 0.00165775 to 0.00165776
Heightened Def Con from 0.00166051 to 0.00166051
Heightened Def Con from 0.00166267 to 0.00166267
Heightened Def Con from 0.00166544 to 0.00166544
Heightened Def Con from 0.00166544 to 0.00166544
Heightened Def Con from 0.0016676 to 0.0016676
Heightened Def Con from 0.0016676 to 0.0016676
Heightened Def Con from 0.00167038 to 0.00167038
Heightened Def Con from 0.00167038 to 0.00167038
Heightened Def Con from 0.00167253 to 0.00167253
Heightened Def Con from 0.00167531 to 0.00167531
Heightened Def Con from 0.00167531 to 0.00167531
Heightened Def Con from 0.00167746 to 0.00167746
Heightened Def Con from 0.00168024 to 0.00168024
Heightened Def Con from 0.00168239 to 0.00168239
Heightened Def Con from 0.00168518 to 0.00168518
Heightened Def Con from 0.00168518 to 0.00168518
Heightened Def Con from 0.00168732 to 0.00168732
Heightened Def Con from 0.00169011 to 0.00169011
Heightened Def Con from 0.00169012 to 0.00169012
Heightened Def Con from 0.00169225 to 0.00169225
Heightened Def Con from 0.00169504 to 0.00169504
Heightened Def Con from 0.00169505 to 0.00169505
Heightened Def Con from 0.00169718 to 0.00169718
Heightened Def Con from 0.00169998 to 0.00169998
Heightened Def Con from 0.00169999 to 0.00169999
Heightened Def Con from 0.00170211 to 0.00170211
Heightened Def Con from 0.00170492 to 0.00170492
Heightened Def Con from 0.00170492 to 0.00170492
Heightened Def Con from 0.00170705 to 0.00170705
Heightened Def Con from 0.00170985 to 0.00170985
Heightened Def Con from 0.00170985 to 0.00170985
Heightened Def Con from 0.00171198 to 0.00171198
Heightened Def Con from 0.00171479 to 0.00171479
Heightened Def Con from 0.00171691 to 0.00171691
Heightened Def Con from 0.00171972 to 0.00171972
Heightened Def Con from 0.00172184 to 0.00172184
Heightened Def Con from 0.00172465 to 0.00172465
Heightened Def Con from 0.00172465 to 0.00172465
Heightened Def Con from 0.00172677 to 0.00172677
Heightened Def Con from 0.00172959 to 0.00172959
Heightened Def Con from 0.0017317 to 0.0017317
Heightened Def Con from 0.00173452 to 0.00173452
Heightened Def Con from 0.00173452 to 0.00173452
Heightened Def Con from 0.00173664 to 0.00173664
Heightened Def Con from 0.00173945 to 0.00173945
Heightened Def Con from 0.00174157 to 0.00174157
Heightened Def Con from 0.00174439 to 0.00174439
Heightened Def Con from 0.0017465 to 0.0017465
Heightened Def Con from 0.00174931 to 0.00174931
Heightened Def Con from 0.00174931 to 0.00174931
Heightened Def Con from 0.00175143 to 0.00175143
Heightened Def Con from 0.00175425 to 0.00175425
Heightened Def Con from 0.00175636 to 0.00175637
Heightened Def Con from 0.00175918 to 0.00175918
Heightened Def Con from 0.0017613 to 0.0017613
Heightened Def Con from 0.00176411 to 0.00176411
Heightened Def Con from 0.00176411 to 0.00176412
Heightened Def Con from 0.00176623 to 0.00176623
Heightened Def Con from 0.00176904 to 0.00176904
Heightened Def Con from 0.00176904 to 0.00176904
Heightened Def Con from 0.00177116 to 0.00177116
Heightened Def Con from 0.00177398 to 0.00177398
Heightened Def Con from 0.00177398 to 0.00177398
Heightened Def Con from 0.0017761 to 0.0017761
Heightened Def Con from 0.00177891 to 0.00177891
Heightened Def Con from 0.00177891 to 0.00177891
Heightened Def Con from 0.00178103 to 0.00178103
Heightened Def Con from 0.00178384 to 0.00178384
Heightened Def Con from 0.00178384 to 0.00178384
Heightened Def Con from 0.00178596 to 0.00178596
Heightened Def Con from 0.00178877 to 0.00178877
Heightened Def Con from 0.0017909 to 0.0017909
Heightened Def Con from 0.00179371 to 0.00179371
Heightened Def Con from 0.00179583 to 0.00179583
Heightened Def Con from 0.00179863 to 0.00179863
Heightened Def Con from 0.00179863 to 0.00179863
Heightened Def Con from 0.00180076 to 0.00180076
Heightened Def Con from 0.00180356 to 0.00180357
Heightened Def Con from 0.0018057 to 0.0018057
Heightened Def Con from 0.0018085 to 0.0018085
Heightened Def Con from 0.0018085 to 0.0018085
Heightened Def Con from 0.00181063 to 0.00181063
Heightened Def Con from 0.00181342 to 0.00181342
Heightened Def Con from 0.00181557 to 0.00181557
Heightened Def Con from 0.00181836 to 0.00181836
Heightened Def Con from 0.00181836 to 0.00181836
Heightened Def Con from 0.0018205 to 0.0018205
Heightened Def Con from 0.00182328 to 0.00182328
Heightened Def Con from 0.00182328 to 0.00182328
Heightened Def Con from 0.00182544 to 0.00182544
Heightened Def Con from 0.00182821 to 0.00182821
Heightened Def Con from 0.00182821 to 0.00182821
Heightened Def Con from 0.00183037 to 0.00183037
Heightened Def Con from 0.00183037 to 0.00183039
Heightened Def Con from 0.00183315 to 0.00183315
Heightened Def Con from 0.0018353 to 0.0018353
Heightened Def Con from 0.00183531 to 0.00183531
Heightened Def Con from 0.00183807 to 0.00183807
Heightened Def Con from 0.00183807 to 0.00183807
Heightened Def Con from 0.00184024 to 0.00184024
Heightened Def Con from 0.00184024 to 0.00184026
Heightened Def Con from 0.001843 to 0.001843
Heightened Def Con from 0.00184301 to 0.00184301
Heightened Def Con from 0.00184517 to 0.00184517
Heightened Def Con from 0.00184793 to 0.00184793
Heightened Def Con from 0.00184793 to 0.00184793
Heightened Def Con from 0.00185011 to 0.00185011
Heightened Def Con from 0.00185011 to 0.00185013
Heightened Def Con from 0.00185286 to 0.00185286
Heightened Def Con from 0.00185286 to 0.00185286
Heightened Def Con from 0.00185504 to 0.00185504
Heightened Def Con from 0.00185505 to 0.00185507
Heightened Def Con from 0.00185779 to 0.00185779
Heightened Def Con from 0.00185779 to 0.00185779
Heightened Def Con from 0.00185998 to 0.00185998
Heightened Def Con from 0.00186271 to 0.00186271
Heightened Def Con from 0.00186272 to 0.00186272
Heightened Def Con from 0.00186492 to 0.00186492
Heightened Def Con from 0.00186765 to 0.00186765
Heightened Def Con from 0.00186985 to 0.00186985
Heightened Def Con from 0.00187258 to 0.00187258
Heightened Def Con from 0.00187258 to 0.00187258
Heightened Def Con from 0.00187479 to 0.00187479
Heightened Def Con from 0.00187751 to 0.00187751
Heightened Def Con from 0.00187751 to 0.00187751
Heightened Def Con from 0.00187972 to 0.00187972
Heightened Def Con from 0.00188243 to 0.00188243
Heightened Def Con from 0.00188466 to 0.00188466
Heightened Def Con from 0.00188466 to 0.00188468
Heightened Def Con from 0.00188736 to 0.00188736
Heightened Def Con from 0.00188736 to 0.00188736
Heightened Def Con from 0.00188736 to 0.00188736
Heightened Def Con from 0.00188959 to 0.00188959
Heightened Def Con from 0.00189229 to 0.00189229
Heightened Def Con from 0.00189453 to 0.00189453
Heightened Def Con from 0.00189453 to 0.00189455
Heightened Def Con from 0.00189721 to 0.00189721
Heightened Def Con from 0.00189721 to 0.00189721
Heightened Def Con from 0.00189947 to 0.00189947
Heightened Def Con from 0.00190214 to 0.00190214
Heightened Def Con from 0.00190214 to 0.00190214
Heightened Def Con from 0.0019044 to 0.0019044
Heightened Def Con from 0.00190441 to 0.00190442
Heightened Def Con from 0.00190707 to 0.00190707
Heightened Def Con from 0.00190707 to 0.00190707
Heightened Def Con from 0.00190934 to 0.00190934
Heightened Def Con from 0.00190934 to 0.00190936
Heightened Def Con from 0.001912 to 0.001912
Heightened Def Con from 0.00191428 to 0.00191428
Heightened Def Con from 0.00191428 to 0.0019143
Heightened Def Con from 0.00191693 to 0.00191693
Heightened Def Con from 0.00191921 to 0.00191921
Heightened Def Con from 0.00192186 to 0.00192186
Heightened Def Con from 0.00192415 to 0.00192415
Heightened Def Con from 0.00192678 to 0.00192678
Heightened Def Con from 0.00192909 to 0.00192909
Heightened Def Con from 0.00193171 to 0.00193171
Heightened Def Con from 0.00193171 to 0.00193171
Heightened Def Con from 0.00193402 to 0.00193402
Heightened Def Con from 0.00193403 to 0.00193405
Heightened Def Con from 0.00193664 to 0.00193664
Heightened Def Con from 0.00193664 to 0.00193664
Heightened Def Con from 0.00193896 to 0.00193896
Heightened Def Con from 0.00193896 to 0.00193898
Heightened Def Con from 0.00194157 to 0.00194157
Heightened Def Con from 0.00194157 to 0.00194159
Heightened Def Con from 0.0019439 to 0.0019439
Heightened Def Con from 0.0019439 to 0.00194392
Heightened Def Con from 0.00194649 to 0.00194649
Heightened Def Con from 0.00194649 to 0.00194651
Heightened Def Con from 0.00194883 to 0.00194883
Heightened Def Con from 0.00195142 to 0.00195142
Heightened Def Con from 0.00195142 to 0.00195144
Heightened Def Con from 0.00195377 to 0.00195377
Heightened Def Con from 0.00195377 to 0.00195379
Heightened Def Con from 0.00195635 to 0.00195635
Heightened Def Con from 0.00195635 to 0.00195637
Heightened Def Con from 0.00195871 to 0.00195871
Heightened Def Con from 0.00195871 to 0.00195873
Heightened Def Con from 0.00196127 to 0.00196127
Heightened Def Con from 0.00196127 to 0.00196129
Heightened Def Con from 0.00196364 to 0.00196364
Heightened Def Con from 0.00196365 to 0.00196367
Heightened Def Con from 0.0019662 to 0.0019662
Heightened Def Con from 0.0019662 to 0.00196622
Heightened Def Con from 0.00196858 to 0.00196858
Heightened Def Con from 0.00196858 to 0.0019686
Heightened Def Con from 0.00197112 to 0.00197113
Heightened Def Con from 0.00197352 to 0.00197352
Heightened Def Con from 0.00197352 to 0.00197354
Heightened Def Con from 0.00197606 to 0.00197606
Heightened Def Con from 0.00197606 to 0.00197608
Heightened Def Con from 0.00197846 to 0.00197846
Heightened Def Con from 0.00198099 to 0.00198099
Heightened Def Con from 0.00198339 to 0.00198339
Heightened Def Con from 0.00198591 to 0.00198591
Heightened Def Con from 0.00198833 to 0.00198833
Heightened Def Con from 0.00198833 to 0.00198835
Heightened Def Con from 0.00199083 to 0.00199083
Heightened Def Con from 0.00199327 to 0.00199327
Heightened Def Con from 0.00199576 to 0.00199576
Heightened Def Con from 0.00199576 to 0.00199579
Heightened Def Con from 0.00199821 to 0.00199821
Heightened Def Con from 0.00199821 to 0.00199823
Heightened Def Con from 0.00200069 to 0.00200069
Heightened Def Con from 0.00200069 to 0.00200071
Heightened Def Con from 0.00200314 to 0.00200314
Heightened Def Con from 0.00200314 to 0.00200316
Heightened Def Con from 0.00200562 to 0.00200562
Heightened Def Con from 0.00200808 to 0.00200808
Heightened Def Con from 0.00200808 to 0.0020081
Heightened Def Con from 0.00201054 to 0.00201054
Heightened Def Con from 0.00201302 to 0.00201302
Heightened Def Con from 0.00201547 to 0.00201547
Heightened Def Con from 0.00201547 to 0.00201549
Heightened Def Con from 0.00201795 to 0.00201795
Heightened Def Con from 0.00201795 to 0.00201795
Heightened Def Con from 0.00202039 to 0.00202039
Heightened Def Con from 0.00202289 to 0.00202289
Heightened Def Con from 0.00202289 to 0.00202289
Heightened Def Con from 0.00202533 to 0.00202533
Heightened Def Con from 0.00202783 to 0.00202783
Heightened Def Con from 0.00202783 to 0.00202783
Heightened Def Con from 0.00203025 to 0.00203025
Heightened Def Con from 0.00203025 to 0.00203027
Heightened Def Con from 0.00203277 to 0.00203277
Heightened Def Con from 0.00203277 to 0.00203277
Heightened Def Con from 0.00203518 to 0.00203518
Heightened Def Con from 0.00203518 to 0.0020352
Heightened Def Con from 0.0020377 to 0.0020377
Heightened Def Con from 0.0020401 to 0.0020401
Heightened Def Con from 0.00204011 to 0.00204013
Heightened Def Con from 0.00204264 to 0.00204264
Heightened Def Con from 0.00204264 to 0.00204264
Heightened Def Con from 0.00204503 to 0.00204503
Heightened Def Con from 0.00204503 to 0.00204505
Heightened Def Con from 0.00204758 to 0.00204758
Heightened Def Con from 0.00204996 to 0.00204996
Heightened Def Con from 0.00205251 to 0.00205251
Heightened Def Con from 0.00205251 to 0.00205251
Heightened Def Con from 0.00205489 to 0.00205489
Heightened Def Con from 0.00205745 to 0.00205745
Heightened Def Con from 0.00205745 to 0.00205745
Heightened Def Con from 0.00205745 to 0.00205745
Heightened Def Con from 0.00205981 to 0.00205981
Heightened Def Con from 0.00205982 to 0.00205983
Heightened Def Con from 0.00206239 to 0.00206239
Heightened Def Con from 0.00206474 to 0.00206474
Heightened Def Con from 0.00206732 to 0.00206732
Heightened Def Con from 0.00206732 to 0.00206732
Heightened Def Con from 0.00206967 to 0.00206967
Heightened Def Con from 0.00206967 to 0.00206969
Heightened Def Con from 0.00207226 to 0.00207226
Heightened Def Con from 0.00207459 to 0.0020746
Heightened Def Con from 0.0020772 to 0.0020772
Heightened Def Con from 0.0020772 to 0.0020772
Heightened Def Con from 0.00207953 to 0.00207953
Heightened Def Con from 0.00208213 to 0.00208213
Heightened Def Con from 0.00208445 to 0.00208445
Heightened Def Con from 0.00208445 to 0.00208447
Heightened Def Con from 0.00208707 to 0.00208707
Heightened Def Con from 0.00208707 to 0.00208707
Heightened Def Con from 0.00208707 to 0.00208707
Heightened Def Con from 0.00208938 to 0.00208938
Heightened Def Con from 0.00209201 to 0.00209201
Heightened Def Con from 0.00209201 to 0.00209201
Heightened Def Con from 0.00209431 to 0.00209431
Heightened Def Con from 0.00209694 to 0.00209694
Heightened Def Con from 0.00209694 to 0.00209694
Heightened Def Con from 0.00209924 to 0.00209924
Heightened Def Con from 0.00209924 to 0.00209926
Heightened Def Con from 0.00210188 to 0.00210188
Heightened Def Con from 0.00210188 to 0.00210188
Heightened Def Con from 0.00210416 to 0.00210416
Heightened Def Con from 0.00210417 to 0.00210419
Heightened Def Con from 0.00210682 to 0.00210682
Heightened Def Con from 0.00210909 to 0.00210909
Heightened Def Con from 0.00211175 to 0.00211175
Heightened Def Con from 0.00211175 to 0.00211175
Heightened Def Con from 0.00211402 to 0.00211402
Heightened Def Con from 0.00211669 to 0.00211669
Heightened Def Con from 0.00211669 to 0.00211669
Heightened Def Con from 0.00211895 to 0.00211895
Heightened Def Con from 0.00211895 to 0.00211897
Heightened Def Con from 0.00212162 to 0.00212163
Heightened Def Con from 0.00212163 to 0.00212163
Heightened Def Con from 0.00212388 to 0.00212388
Heightened Def Con from 0.00212656 to 0.00212656
Heightened Def Con from 0.0021288 to 0.0021288
Heightened Def Con from 0.00213149 to 0.0021315
Heightened Def Con from 0.0021315 to 0.0021315
Heightened Def Con from 0.00213373 to 0.00213373
Heightened Def Con from 0.00213643 to 0.00213643
Heightened Def Con from 0.00213866 to 0.00213866
Heightened Def Con from 0.00214137 to 0.00214137
Heightened Def Con from 0.00214137 to 0.00214137
Heightened Def Con from 0.00214359 to 0.00214359
Heightened Def Con from 0.0021463 to 0.0021463
Heightened Def Con from 0.00214852 to 0.00214852
Heightened Def Con from 0.00215124 to 0.00215124
Heightened Def Con from 0.00215124 to 0.00215124
Heightened Def Con from 0.00215345 to 0.00215345
Heightened Def Con from 0.00215617 to 0.00215617
Heightened Def Con from 0.00215838 to 0.00215838
Heightened Def Con from 0.00216111 to 0.00216111
Heightened Def Con from 0.00216331 to 0.00216331
Heightened Def Con from 0.00216604 to 0.00216604
Heightened Def Con from 0.00216824 to 0.00216824
Heightened Def Con from 0.00217098 to 0.00217098
Heightened Def Con from 0.00217317 to 0.00217317
Heightened Def Con from 0.00217591 to 0.00217591
Heightened Def Con from 0.0021781 to 0.0021781
Heightened Def Con from 0.00218085 to 0.00218085
Heightened Def Con from 0.00218303 to 0.00218303
Heightened Def Con from 0.00218578 to 0.00218578
Heightened Def Con from 0.00218578 to 0.00218578
Heightened Def Con from 0.00218796 to 0.00218796
Heightened Def Con from 0.00219071 to 0.00219072
Heightened Def Con from 0.00219072 to 0.00219072
Heightened Def Con from 0.00219289 ++++to 0.00219289
Heightened Def Con from 0.00219289 to 0.00219289
Heightened Def Con from 0.00219565 to 0.00219565
Heightened Def Con from 0.00219565 to 0.00219565
Heightened Def Con from 0.00219782 to 0.00219782
Heightened Def Con from 0.00220058 to 0.00220058
Heightened Def Con from 0.00220058 to 0.00220059
Heightened Def Con from 0.00220275 to 0.00220275
Heightened Def Con from 0.00220552 to 0.00220552
Heightened Def Con from 0.00220552 to 0.00220552
Heightened Def Con from 0.00220768 to 0.00220768
Heightened Def Con from 0.00221045 to 0.00221045
Heightened Def Con from 0.00221045 to 0.00221045
Heightened Def Con from 0.00221261 to 0.00221261
Heightened Def Con from 0.00221538 to 0.00221538
Heightened Def Con from 0.00221539 to 0.00221539
Heightened Def Con from 0.00221754 to 0.00221754
Heightened Def Con from 0.00222032 to 0.00222032
Heightened Def Con from 0.00222032 to 0.00222032
Heightened Def Con from 0.00222248 to 0.00222248
Heightened Def Con from 0.00222525 to 0.00222525
Heightened Def Con from 0.00222525 to 0.00222525
Heightened Def Con from 0.0022274 to 0.0022274
Heightened Def Con from 0.00223018 to 0.00223018
Heightened Def Con from 0.00223019 to 0.00223019
Heightened Def Con from 0.00223234 to 0.00223234
Heightened Def Con from 0.00223512 to 0.00223512
Heightened Def Con from 0.00223512 to 0.00223512
Heightened Def Con from 0.00223727 to 0.00223727
Heightened Def Con from 0.00224005 to 0.00224005
Heightened Def Con from 0.0022422 to 0.0022422
Heightened Def Con from 0.00224498 to 0.00224498
Heightened Def Con from 0.00224498 to 0.00224498
Heightened Def Con from 0.00224713 to 0.00224713
Heightened Def Con from 0.00224992 to 0.00224992
Heightened Def Con from 0.00225207 to 0.00225207
Heightened Def Con from 0.00225485 to 0.00225485
Heightened Def Con from 0.00225485 to 0.00225485
Heightened Def Con from 0.002257 to 0.002257
Heightened Def Con from 0.00225978 to 0.00225978
Heightened Def Con from 0.00225978 to 0.00225978
Heightened Def Con from 0.00226193 to 0.00226193
Heightened Def Con from 0.00226471 to 0.00226471
Heightened Def Con from 0.00226686 to 0.00226686
Heightened Def Con from 0.00226962 to 0.00226962
Heightened Def Con from 0.00226964 to 0.00226964
Heightened Def Con from 0.00226964 to 0.00226964
Heightened Def Con from 0.00227179 to 0.0022718
Heightened Def Con from 0.00227457 to 0.00227458
Heightened Def Con from 0.00227458 to 0.00227458
Heightened Def Con from 0.00227673 to 0.00227673
Heightened Def Con from 0.00227951 to 0.00227951
Heightened Def Con from 0.00227951 to 0.00227951
Heightened Def Con from 0.00228167 to 0.00228167
Heightened Def Con from 0.00228444 to 0.00228444
Heightened Def Con from 0.00228444 to 0.00228444
Heightened Def Con from 0.0022866 to 0.0022866
Heightened Def Con from 0.00228937 to 0.00228937
Heightened Def Con from 0.00229153 to 0.00229153
Heightened Def Con from 0.0022943 to 0.0022943
Heightened Def Con from 0.0022943 to 0.0022943
Heightened Def Con from 0.00229646 to 0.00229646
Heightened Def Con from 0.00229923 to 0.00229923
Heightened Def Con from 0.00230139 to 0.00230139
Heightened Def Con from 0.00230416 to 0.00230416
Heightened Def Con from 0.00230633 to 0.00230633
Heightened Def Con from 0.00230909 to 0.00230909
Heightened Def Con from 0.00231127 to 0.00231127
Heightened Def Con from 0.00231402 to 0.00231402
Heightened Def Con from 0.0023162 to 0.0023162
Heightened Def Con from 0.00231896 to 0.00231896
Heightened Def Con from 0.00232114 to 0.00232114
Heightened Def Con from 0.00232389 to 0.00232389
Heightened Def Con from 0.00232607 to 0.00232607
Heightened Def Con from 0.00232882 to 0.00232882
Heightened Def Con from 0.002331 to 0.002331
Heightened Def Con from 0.00233374 to 0.00233374
Heightened Def Con from 0.00233375 to 0.00233375
Heightened Def Con from 0.00233594 to 0.00233594
Heightened Def Con from 0.00233865 to 0.00233867
Heightened Def Con from 0.00233867 to 0.00233867
[...]
Heightened Def Con from 0.0104054 to 0.0104054
Heightened Def Con from 0.0104054 to 0.0104054
Heightened Def Con from 0.010408 to 0.010408
Heightened Def Con from 0.010408 to 0.010408
Heightened Def Con from 0.0104103 to 0.0104103
Heightened Def Con from 0.0104103 to 0.0104103
Heightened Def Con from 0.010413 to 0.010413
Heightened Def Con from 0.0104153 to 0.0104153
Heightened Def Con from 0.0104153 to 0.0104153
Heightened Def Con from 0.0104179 to 0.0104179
Heightened Def Con from 0.0104179 to 0.0104179
Heightened Def Con from 0.0104202 to 0.0104202
Heightened Def Con from 0.0104228 to 0.0104228
Heightened Def Con from 0.0104251 to 0.0104251
Heightened Def Con from 0.0104251 to 0.0104252
Heightened Def Con from 0.0104277 to 0.0104277
Heightened Def Con from 0.0104277 to 0.0104277
Heightened Def Con from 0.0104301 to 0.0104301
Heightened Def Con from 0.0104327 to 0.0104327
Heightened Def Con from 0.0104327 to 0.0104327
Heightened Def Con from 0.010435 to 0.010435
Heightened Def Con from 0.010435 to 0.010435
Heightened Def Con from 0.0104376 to 0.0104376
Heightened Def Con from 0.0104399 to 0.0104399
Heightened Def Con from 0.0104425 to 0.0104425
Heightened Def Con from 0.0104425 to 0.0104425
Heightened Def Con from 0.0104449 to 0.0104449
Heightened Def Con from 0.0104474 to 0.0104474
Heightened Def Con from 0.0104474 to 0.0104474
Heightened Def Con from 0.0104474 to 0.0104474
Heightened Def Con from 0.0104498 to 0.0104498
Heightened Def Con from 0.0104498 to 0.0104498
Heightened Def Con from 0.0104524 to 0.0104524
Heightened Def Con from 0.0104524 to 0.0104524
Heightened Def Con from 0.0104548 to 0.0104548
Heightened Def Con from 0.0104548 to 0.0104548
Heightened Def Con from 0.0104573 to 0.0104573
Heightened Def Con from 0.0104573 to 0.0104573
Heightened Def Con from 0.0104597 to 0.0104597
Heightened Def Con from 0.0104597 to 0.0104597
Heightened Def Con from 0.0104622 to 0.0104622
Heightened Def Con from 0.0104646 to 0.0104646
Heightened Def Con from 0.0104672 to 0.0104672
Heightened Def Con from 0.0104672 to 0.0104672
Heightened Def Con from 0.0104696 to 0.0104696
Heightened Def Con from 0.0104696 to 0.0104696
Heightened Def Con from 0.0104721 to 0.0104721
Heightened Def Con from 0.0104721 to 0.0104721
Heightened Def Con from 0.0104745 to 0.0104745
Heightened Def Con from 0.0104745 to 0.0104745
Heightened Def Con from 0.010477 to 0.010477
Heightened Def Con from 0.0104794 to 0.0104794
Heightened Def Con from 0.0104794 to 0.0104795
Heightened Def Con from 0.0104819 to 0.0104819
Heightened Def Con from 0.0104819 to 0.0104819
Heightened Def Con from 0.0104844 to 0.0104844
Heightened Def Con from 0.0104844 to 0.0104844
Heightened Def Con from 0.0104869 to 0.0104869
Heightened Def Con from 0.0104869 to 0.0104869
Heightened Def Con from 0.0104893 to 0.0104893
Heightened Def Con from 0.0104918 to 0.0104918
Heightened Def Con from 0.0104943 to 0.0104943
Heightened Def Con from 0.0104943 to 0.0104943
Heightened Def Con from 0.0104967 to 0.0104967
Heightened Def Con from 0.0104992 to 0.0104992
Heightened Def Con from 0.0104992 to 0.0104992
Heightened Def Con from 0.0105017 to 0.0105017
Heightened Def Con from 0.0105017 to 0.0105017
Heightened Def Con from 0.0105041 to 0.0105041
Heightened Def Con from 0.0105066 to 0.0105066
Heightened Def Con from 0.0105066 to 0.0105066
Heightened Def Con from 0.0105091 to 0.0105091
Heightened Def Con from 0.0105091 to 0.0105091
Heightened Def Con from 0.0105115 to 0.0105115
Heightened Def Con from 0.0105115 to 0.0105115
Heightened Def Con from 0.010514 to 0.010514
Heightened Def Con from 0.010514 to 0.010514
Heightened Def Con from 0.0105164 to 0.0105164
Heightened Def Con from 0.0105164 to 0.0105165
Heightened Def Con from 0.0105189 to 0.0105189
Heightened Def Con from 0.0105214 to 0.0105214
Heightened Def Con from 0.0105239 to 0.0105239
Heightened Def Con from 0.0105239 to 0.0105239
Heightened Def Con from 0.0105263 to 0.0105263
Heightened Def Con from 0.0105288 to 0.0105288
Heightened Def Con from 0.0105288 to 0.0105288
Heightened Def Con from 0.0105312 to 0.0105312
Heightened Def Con from 0.0105312 to 0.0105312
Heightened Def Con from 0.0105338 to 0.0105338
Heightened Def Con from 0.0105361 to 0.0105361
Heightened Def Con from 0.0105361 to 0.0105362
Heightened Def Con from 0.0105387 to 0.0105387
Heightened Def Con from 0.0105411 to 0.0105411
Heightened Def Con from 0.0105411 to 0.0105411
Heightened Def Con from 0.0105436 to 0.0105436
Heightened Def Con from 0.0105436 to 0.0105437
Heightened Def Con from 0.010546 to 0.010546
Heightened Def Con from 0.0105486 to 0.0105486
Heightened Def Con from 0.0105486 to 0.0105486
Heightened Def Con from 0.0105509 to 0.0105509
Heightened Def Con from 0.0105509 to 0.010551
Heightened Def Con from 0.0105535 to 0.0105535
Heightened Def Con from 0.0105535 to 0.0105535
Heightened Def Con from 0.0105559 to 0.0105559
Heightened Def Con from 0.0105559 to 0.0105559
Heightened Def Con from 0.0105584 to 0.0105584
Heightened Def Con from 0.0105584 to 0.0105585
Heightened Def Con from 0.0105608 to 0.0105608
Heightened Def Con from 0.0105608 to 0.0105608
Heightened Def Con from 0.0105634 to 0.0105634
Heightened Def Con from 0.0105634 to 0.0105634
Heightened Def Con from 0.0105657 to 0.0105657
Heightened Def Con from 0.0105657 to 0.0105657
Heightened Def Con from 0.0105683 to 0.0105683
Heightened Def Con from 0.0105683 to 0.0105683
Heightened Def Con from 0.0105706 to 0.0105706
Heightened Def Con from 0.0105706 to 0.0105707
Heightened Def Con from 0.0105733 to 0.0105733
Heightened Def Con from 0.0105733 to 0.0105733
Heightened Def Con from 0.0105756 to 0.0105756
Heightened Def Con from 0.0105756 to 0.0105756
Heightened Def Con from 0.0105782 to 0.0105782
Heightened Def Con from 0.0105782 to 0.0105782
Heightened Def Con from 0.0105805 to 0.0105805
Heightened Def Con from 0.0105805 to 0.0105805
Heightened Def Con from 0.0105831 to 0.0105831
Heightened Def Con from 0.0105831 to 0.0105832
Heightened Def Con from 0.0105854 to 0.0105854
Heightened Def Con from 0.0105881 to 0.0105881
Heightened Def Con from 0.0105881 to 0.0105881
Heightened Def Con from 0.0105904 to 0.0105904
Heightened Def Con from 0.010593 to 0.010593
Heightened Def Con from 0.0105953 to 0.0105953
Heightened Def Con from 0.0105979 to 0.0105979
Heightened Def Con from 0.0105979 to 0.010598
Heightened Def Con from 0.0106002 to 0.0106002
Heightened Def Con from 0.0106002 to 0.0106002
Heightened Def Con from 0.0106029 to 0.0106029
Heightened Def Con from 0.0106029 to 0.0106029
Heightened Def Con from 0.0106051 to 0.0106051
Heightened Def Con from 0.0106078 to 0.0106078
Heightened Def Con from 0.0106078 to 0.0106078
Heightened Def Con from 0.0106101 to 0.0106101
Heightened Def Con from 0.0106101 to 0.0106101
Heightened Def Con from 0.0106128 to 0.0106128
Heightened Def Con from 0.0106128 to 0.0106128
Heightened Def Con from 0.010615 to 0.010615
Heightened Def Con from 0.010615 to 0.010615
Heightened Def Con from 0.0106177 to 0.0106177
Heightened Def Con from 0.0106177 to 0.0106177
Heightened Def Con from 0.0106199 to 0.0106199
Heightened Def Con from 0.0106226 to 0.0106226
Heightened Def Con from 0.0106249 to 0.0106249
Heightened Def Con from 0.0106249 to 0.0106249
Heightened Def Con from 0.0106276 to 0.0106276
Heightened Def Con from 0.0106276 to 0.0106276
Heightened Def Con from 0.0106298 to 0.0106298
Heightened Def Con from 0.0106325 to 0.0106325
Heightened Def Con from 0.0106325 to 0.0106325
Heightened Def Con from 0.0106347 to 0.0106347
Heightened Def Con from 0.0106347 to 0.0106347
Heightened Def Con from 0.0106374 to 0.0106374
Heightened Def Con from 0.0106374 to 0.0106374
Heightened Def Con from 0.0106396 to 0.0106396
Heightened Def Con from 0.0106396 to 0.0106397
Heightened Def Con from 0.0106424 to 0.0106424
Heightened Def Con from 0.0106446 to 0.0106446
Heightened Def Con from 0.0106446 to 0.0106446
Heightened Def Con from 0.0106473 to 0.0106473
Heightened Def Con from 0.0106473 to 0.0106473
Heightened Def Con from 0.0106495 to 0.0106495
Heightened Def Con from 0.0106522 to 0.0106522
Heightened Def Con from 0.0106522 to 0.0106522
Heightened Def Con from 0.0106544 to 0.0106544
Heightened Def Con from 0.0106572 to 0.0106572
Heightened Def Con from 0.0106594 to 0.0106594
Heightened Def Con from 0.0106621 to 0.0106621
Heightened Def Con from 0.0106643 to 0.0106643
Heightened Def Con from 0.0106671 to 0.0106671
Heightened Def Con from 0.0106692 to 0.0106692
Heightened Def Con from 0.0106692 to 0.0106692
Heightened Def Con from 0.010672 to 0.010672
Heightened Def Con from 0.0106742 to 0.0106742
Heightened Def Con from 0.0106742 to 0.0106742
Heightened Def Con from 0.0106769 to 0.0106769
Heightened Def Con from 0.0106769 to 0.0106769
Heightened Def Con from 0.0106791 to 0.0106791
Heightened Def Con from 0.0106791 to 0.0106791
Heightened Def Con from 0.0106819 to 0.0106819
Heightened Def Con from 0.010684 to 0.010684
Heightened Def Con from 0.0106868 to 0.0106868
Heightened Def Con from 0.0106889 to 0.0106889
Heightened Def Con from 0.0106917 to 0.0106917
Heightened Def Con from 0.0106917 to 0.0106917
Heightened Def Con from 0.0106939 to 0.0106939
Heightened Def Con from 0.0106967 to 0.0106967
Heightened Def Con from 0.0106988 to 0.0106988
Heightened Def Con from 0.0107016 to 0.0107016
Heightened Def Con from 0.0107016 to 0.0107016
Heightened Def Con from 0.0107037 to 0.0107037
Heightened Def Con from 0.0107065 to 0.0107065
Heightened Def Con from 0.0107065 to 0.0107065
Heightened Def Con from 0.0107087 to 0.0107087
Heightened Def Con from 0.0107115 to 0.0107115
Heightened Def Con from 0.0107115 to 0.0107115
Heightened Def Con from 0.0107136 to 0.0107136
Heightened Def Con from 0.0107164 to 0.0107164
Heightened Def Con from 0.0107185 to 0.0107185
Heightened Def Con from 0.0107213 to 0.0107213
Heightened Def Con from 0.0107235 to 0.0107235
Heightened Def Con from 0.0107263 to 0.0107263
Heightened Def Con from 0.0107263 to 0.0107263
Heightened Def Con from 0.0107284 to 0.0107284
Heightened Def Con from 0.0107312 to 0.0107312
Heightened Def Con from 0.0107312 to 0.0107312
Heightened Def Con from 0.0107333 to 0.0107333
Heightened Def Con from 0.0107361 to 0.0107361
Heightened Def Con from 0.0107361 to 0.0107361
Heightened Def Con from 0.0107383 to 0.0107383
Heightened Def Con from 0.0107411 to 0.0107411
Heightened Def Con from 0.0107411 to 0.0107411
Heightened Def Con from 0.0107432 to 0.0107432
Heightened Def Con from 0.010746 to 0.010746
Heightened Def Con from 0.0107481 to 0.0107481
Heightened Def Con from 0.0107509 to 0.0107509
Heightened Def Con from 0.0107531 to 0.0107531
Heightened Def Con from 0.0107559 to 0.0107559
Heightened Def Con from 0.010758 to 0.010758
Heightened Def Con from 0.0107608 to 0.0107608
Heightened Def Con from 0.0107629 to 0.0107629
Heightened Def Con from 0.0107657 to 0.0107657
Heightened Def Con from 0.0107657 to 0.0107657
Heightened Def Con from 0.0107678 to 0.0107678
Heightened Def Con from 0.0107707 to 0.0107707
Heightened Def Con from 0.0107728 to 0.0107728
Heightened Def Con from 0.0107756 to 0.0107756
Heightened Def Con from 0.0107777 to 0.0107777
Heightened Def Con from 0.0107805 to 0.0107805
Heightened Def Con from 0.0107805 to 0.0107805
Heightened Def Con from 0.0107826 to 0.0107826
Heightened Def Con from 0.0107854 to 0.0107854
Heightened Def Con from 0.0107855 to 0.0107855
Heightened Def Con from 0.0107876 to 0.0107876
Heightened Def Con from 0.0107904 to 0.0107904
Heightened Def Con from 0.0107904 to 0.0107904
Heightened Def Con from 0.0107925 to 0.0107925
Heightened Def Con from 0.0107953 to 0.0107953
Heightened Def Con from 0.0107974 to 0.0107974
Heightened Def Con from 0.0108002 to 0.0108002
Heightened Def Con from 0.0108002 to 0.0108002
Heightened Def Con from 0.0108024 to 0.0108024
Heightened Def Con from 0.0108052 to 0.0108052
Heightened Def Con from 0.0108052 to 0.0108052
Heightened Def Con from 0.0108073 to 0.0108073
Heightened Def Con from 0.0108101 to 0.0108101
Heightened Def Con from 0.0108101 to 0.0108101
Heightened Def Con from 0.0108123 to 0.0108123
Heightened Def Con from 0.010815 to 0.010815
Heightened Def Con from 0.010815 to 0.010815
Heightened Def Con from 0.0108172 to 0.0108172
Heightened Def Con from 0.01082 to 0.01082
Heightened Def Con from 0.0108221 to 0.0108221
Heightened Def Con from 0.0108221 to 0.0108221
Heightened Def Con from 0.0108249 to 0.0108249
Heightened Def Con from 0.0108249 to 0.0108249
Heightened Def Con from 0.0108271 to 0.0108271
Heightened Def Con from 0.0108298 to 0.0108298
Heightened Def Con from 0.010832 to 0.010832
Heightened Def Con from 0.010832 to 0.010832
Heightened Def Con from 0.0108348 to 0.0108348
Heightened Def Con from 0.0108369 to 0.0108369
Heightened Def Con from 0.0108369 to 0.0108369
Heightened Def Con from 0.0108397 to 0.0108397
Heightened Def Con from 0.0108419 to 0.0108419
Heightened Def Con from 0.0108419 to 0.0108419
Heightened Def Con from 0.0108446 to 0.0108446
Heightened Def Con from 0.0108468 to 0.0108468
Heightened Def Con from 0.0108495 to 0.0108495
Heightened Def Con from 0.0108517 to 0.0108517
Heightened Def Con from 0.0108545 to 0.0108545
Heightened Def Con from 0.0108545 to 0.0108545
Heightened Def Con from 0.0108567 to 0.0108567
Heightened Def Con from 0.0108567 to 0.0108567
Heightened Def Con from 0.0108594 to 0.0108594
Heightened Def Con from 0.0108594 to 0.0108594
Heightened Def Con from 0.0108616 to 0.0108616
Heightened Def Con from 0.0108616 to 0.0108616
Heightened Def Con from 0.0108643 to 0.0108643
Heightened Def Con from 0.0108643 to 0.0108643
Heightened Def Con from 0.0108665 to 0.0108665
Heightened Def Con from 0.0108665 to 0.0108666
Heightened Def Con from 0.0108693 to 0.0108693
Heightened Def Con from 0.0108715 to 0.0108715
Heightened Def Con from 0.0108715 to 0.0108715
Heightened Def Con from 0.0108742 to 0.0108742
Heightened Def Con from 0.0108764 to 0.0108764
Heightened Def Con from 0.0108764 to 0.0108764
Heightened Def Con from 0.0108791 to 0.0108791
Heightened Def Con from 0.0108791 to 0.0108791
Heightened Def Con from 0.0108813 to 0.0108813
Heightened Def Con from 0.0108813 to 0.0108814
Heightened Def Con from 0.010884 to 0.010884
Heightened Def Con from 0.010884 to 0.010884
Heightened Def Con from 0.0108863 to 0.0108863
Heightened Def Con from 0.0108863 to 0.0108863
Heightened Def Con from 0.010889 to 0.010889
Heightened Def Con from 0.010889 to 0.010889
Heightened Def Con from 0.0108912 to 0.0108912
Heightened Def Con from 0.0108912 to 0.0108912
Heightened Def Con from 0.0108939 to 0.0108939
Heightened Def Con from 0.0108939 to 0.0108939
Heightened Def Con from 0.0108962 to 0.0108962
Heightened Def Con from 0.0108962 to 0.0108962
Heightened Def Con from 0.0108988 to 0.0108988
Heightened Def Con from 0.0108988 to 0.0108988
Heightened Def Con from 0.0109011 to 0.0109011
Heightened Def Con from 0.0109038 to 0.0109038
Heightened Def Con from 0.010906 to 0.010906
Heightened Def Con from 0.010906 to 0.010906
Heightened Def Con from 0.0109087 to 0.0109087
Heightened Def Con from 0.0109087 to 0.0109087
Heightened Def Con from 0.010911 to 0.010911
Heightened Def Con from 0.010911 to 0.010911
Heightened Def Con from 0.0109136 to 0.0109136
Heightened Def Con from 0.0109136 to 0.0109136
Heightened Def Con from 0.0109159 to 0.0109159
Heightened Def Con from 0.0109185 to 0.0109185
Heightened Def Con from 0.0109185 to 0.0109185
Heightened Def Con from 0.0109208 to 0.0109208
Heightened Def Con from 0.0109235 to 0.0109235
Heightened Def Con from 0.0109258 to 0.0109258
Heightened Def Con from 0.0109258 to 0.0109258
Heightened Def Con from 0.0109284 to 0.0109284
Heightened Def Con from 0.0109307 to 0.0109307
Heightened Def Con from 0.0109307 to 0.0109307
Heightened Def Con from 0.0109333 to 0.0109333
Heightened Def Con from 0.0109333 to 0.0109333
Heightened Def Con from 0.0109356 to 0.0109356
Heightened Def Con from 0.0109382 to 0.0109382
Heightened Def Con from 0.0109382 to 0.0109383
Heightened Def Con from 0.0109406 to 0.0109406
Heightened Def Con from 0.0109406 to 0.0109406
Heightened Def Con from 0.0109432 to 0.0109432
Heightened Def Con from 0.0109455 to 0.0109455
Heightened Def Con from 0.0109481 to 0.0109481
Heightened Def Con from 0.0109505 to 0.0109505
Heightened Def Con from 0.010953 to 0.010953
Heightened Def Con from 0.010953 to 0.010953
Heightened Def Con from 0.0109554 to 0.0109554
Heightened Def Con from 0.0109554 to 0.0109554
Heightened Def Con from 0.010958 to 0.010958
Heightened Def Con from 0.010958 to 0.010958
Heightened Def Con from 0.0109603 to 0.0109603
Heightened Def Con from 0.0109603 to 0.0109603
Heightened Def Con from 0.0109629 to 0.0109629
Heightened Def Con from 0.0109629 to 0.0109629
Heightened Def Con from 0.0109653 to 0.0109653
Heightened Def Con from 0.0109653 to 0.0109653
Heightened Def Con from 0.0109678 to 0.0109678
Heightened Def Con from 0.0109678 to 0.0109678
Heightened Def Con from 0.0109702 to 0.0109702
Heightened Def Con from 0.0109702 to 0.0109702
Heightened Def Con from 0.0109727 to 0.0109727
Heightened Def Con from 0.0109751 to 0.0109751
Heightened Def Con from 0.0109751 to 0.0109752
Heightened Def Con from 0.0109777 to 0.0109777
Heightened Def Con from 0.0109777 to 0.0109777
Heightened Def Con from 0.0109801 to 0.0109801
Heightened Def Con from 0.0109801 to 0.0109801
Heightened Def Con from 0.0109826 to 0.0109826
Heightened Def Con from 0.0109826 to 0.0109826
Heightened Def Con from 0.010985 to 0.010985
Heightened Def Con from 0.010985 to 0.010985
Heightened Def Con from 0.0109875 to 0.0109875
Heightened Def Con from 0.0109875 to 0.0109875
Heightened Def Con from 0.0109899 to 0.0109899
Heightened Def Con from 0.0109899 to 0.01099
Heightened Def Con from 0.0109924 to 0.0109924
Heightened Def Con from 0.0109924 to 0.0109925
Heightened Def Con from 0.0109949 to 0.0109949
Heightened Def Con from 0.0109949 to 0.0109949
Heightened Def Con from 0.0109974 to 0.0109974
Heightened Def Con from 0.0109974 to 0.0109974
Heightened Def Con from 0.0109998 to 0.0109998
N-Period=all
Fourier components of V(vo)
DC component:-0.151345

Harmonic	Frequency	 Fourier 	Normalized	 Phase  	Normalized
 Number 	  [Hz]   	Component	 Component	[degree]	Phase [deg]
    1   	1.000e+03	3.949e+00	1.000e+00	   -1.51°	    0.00°
    2   	2.000e+03	3.956e-03	1.002e-03	  143.14°	  144.65°
    3   	3.000e+03	1.667e-03	4.222e-04	    9.22°	   10.73°
    4   	4.000e+03	1.712e-03	4.335e-04	 -160.67°	 -159.15°
    5   	5.000e+03	1.324e-03	3.352e-04	 -176.96°	 -175.45°
    6   	6.000e+03	9.099e-04	2.304e-04	  -64.28°	  -62.77°
    7   	7.000e+03	1.259e-03	3.188e-04	  -73.50°	  -71.99°
    8   	8.000e+03	1.430e-03	3.621e-04	 -148.25°	 -146.73°
    9   	9.000e+03	1.870e-03	4.735e-04	  165.39°	  166.90°
Total Harmonic Distortion: 0.141154%(60.054454%)


.step vin=1.1
N-Period=all
Fourier components of V(vo)
DC component:-0.146641

Harmonic	Frequency	 Fourier 	Normalized	 Phase  	Normalized
 Number 	  [Hz]   	Component	 Component	[degree]	Phase [deg]
    1   	1.000e+03	2.175e+01	1.000e+00	   -1.51°	    0.00°
    2   	2.000e+03	2.925e-03	1.345e-04	 -143.11°	 -141.61°
    3   	3.000e+03	6.010e-02	2.763e-03	  174.86°	  176.37°
    4   	4.000e+03	5.387e-03	2.477e-04	 -119.61°	 -118.10°
    5   	5.000e+03	1.594e-02	7.330e-04	  170.30°	  171.81°
    6   	6.000e+03	3.204e-03	1.473e-04	 -132.19°	 -130.68°
    7   	7.000e+03	3.795e-03	1.745e-04	  -24.13°	  -22.63°
    8   	8.000e+03	1.238e-03	5.692e-05	 -122.14°	 -120.63°
    9   	9.000e+03	1.298e-02	5.967e-04	  -20.65°	  -19.14°
Total Harmonic Distortion: 0.294304%(8.114627%)


Date: Sat Mar 07 11:56:00 2020
Total elapsed time: 6124.788 seconds.

tnom = 27
temp = 27
method = modified trap
totiter = 26010272
traniter = 26010272
tranpoints = 8107992
accept = 6030742
rejected = 2084719
matrix size = 370
fillins = 554
Thread vector: 108.5/60.7[5] 27.0/15.4[5] 18.3/7.0[5] 4.6/4.5[2]  2592/500
Matrix Compiler1: 64.19 KB object code size  23.1/17.2/[5.8]
Matrix Compiler2: 42.52 KB object code size  11.5/13.6/[3.9]

