Circuit: * C:\Users\emanu\Desktop\DCE-GRUPO10\DISTORSION\OTRAS\LAZO ABIERTO\Distorsion_20k_ol.asc

Questionable use of curly braces in "b§e_abmgate yint 0 v={if(v(a)>{{vthresh}},{{vss}},{{vdd}})}"
    Error: undefined symbol in: "if([v](a)>((vthresh)),((vss)),((vdd)))"
Questionable use of curly braces in "b§e_abmgate yint 0 v={if(v(a)>{{vthresh}}&v(b)>{{vthresh}},{{vdd}},{{vss}})}"
    Error: undefined symbol in: "if([v](a)>((vthresh))&v(b)>((vthresh)),((vdd)),((vss)))"
Questionable use of curly braces in "b§e_abmgate yint 0 v={if(v(a)>{{vthresh}}&v(b)>{{vthresh}},{{vdd}},{{vss}})}"
    Error: undefined symbol in: "if([v](a)>((vthresh))&v(b)>((vthresh)),((vdd)),((vss)))"
Questionable use of curly braces in "b§e_abmgate yint 0 v={if(v(a)>{{vthresh}},{{vss}},{{vdd}})}"
    Error: undefined symbol in: "if([v](a)>((vthresh)),((vss)),((vdd)))"
Questionable use of curly braces in "b§e_abmgate yint 0 v={if(v(a)>{{vthresh}}&v(b)>{{vthresh}},{{vdd}},{{vss}})}"
    Error: undefined symbol in: "if([v](a)>((vthresh))&v(b)>((vthresh)),((vdd)),((vss)))"
Questionable use of curly braces in "b§e_abmgate yint 0 v={if(v(a)>{{vthresh}},{{vss}},{{vdd}})}"
    Error: undefined symbol in: "if([v](a)>((vthresh)),((vss)),((vdd)))"
WARNING: Less than two connections to node NC_03.  This node is used by V:U4:_V11.
WARNING: Less than two connections to node NC_02.  This node is used by V:U4:_V12.
WARNING: Less than two connections to node NC_01.  This node is used by V:U4:_V13.
WARNING: Less than two connections to node NC_04.  This node is used by V:U4:_V14.
WARNING: Less than two connections to node -15V.  This node is used by V6.
Instance "m:u4:_m12:1": Length shorter than recommended for a level 1 MOSFET.
Instance "m:u4:_m14:1": Length shorter than recommended for a level 1 MOSFET.
Instance "m:u4:_m15:1": Length shorter than recommended for a level 1 MOSFET.
Instance "m:u4:_m13:1": Length shorter than recommended for a level 1 MOSFET.
Instance "m:m2:2": Length shorter than recommended for a level 3 MOSFET.
Instance "m:m2:1": Length shorter than recommended for a level 3 MOSFET.
Instance "m:m1:2": Length shorter than recommended for a level 3 MOSFET.
Instance "m:m1:1": Length shorter than recommended for a level 3 MOSFET.
Per .tran options, skipping operating point for transient analysis.
Ignoring empty pin current: Ix(u4:vcci_1)
Changing Tseed to 1e-10
Changing Tseed to 1e-12
Changing Tseed to 1e-09
Changing Tseed to 1e-13
Changing Tseed to 1e-08
Changing Tseed to 1e-14
Changing Tseed to 1e-07
Changing Tseed to 1e-15
Changing Tseed to 1e-06
Changing Tseed to 1e-16
Changing Tseed to 1e-05
Changing Tseed to 1e-17
Heightened Def Con from 0 Changing Tseed to 1e-09
Changing Tseed to 1e-11
Changing Tseed to 1e-08
Changing Tseed to 1e-12
Changing Tseed to 1e-07
Changing Tseed to 1e-13
Changing Tseed to 1e-06
Changing Tseed to 1e-14
Changing Tseed to 1e-05
Changing Tseed to 1e-15
Changing Tseed to 0.0001
Changing Tseed to 1e-16
+Changing Tseed to 1e-09
Changing Tseed to 1e-11
Changing Tseed to 1e-08
Changing Tseed to 1e-12
Changing Tseed to 1e-07
Changing Tseed to 1e-13
Changing Tseed to 1e-06
Changing Tseed to 1e-14
Changing Tseed to 1e-05
Changing Tseed to 1e-15
Changing Tseed to 0.0001
Changing Tseed to 1e-16
+Changing Tseed to 1e-09
Changing Tseed to 1e-11
Changing Tseed to 1e-08
Changing Tseed to 1e-12
Changing Tseed to 1e-07
Changing Tseed to 1e-13
Changing Tseed to 1e-06
Changing Tseed to 1e-14
Changing Tseed to 1e-05
Changing Tseed to 1e-15
Changing Tseed to 0.0001
Changing Tseed to 1e-16
+Changing Tseed to 1e-09
Changing Tseed to 1e-11
Changing Tseed to 1e-08
Changing Tseed to 1e-12
Changing Tseed to 1e-07
Changing Tseed to 1e-13
Changing Tseed to 1e-06
Changing Tseed to 1e-14
Changing Tseed to 1e-05
Changing Tseed to 1e-15
Changing Tseed to 0.0001
Changing Tseed to 1e-16
+Changing Tseed to 1e-09
Changing Tseed to 1e-11
Changing Tseed to 1e-08
Changing Tseed to 1e-12
Changing Tseed to 1e-07
Changing Tseed to 1e-13
Changing Tseed to 1e-06
Changing Tseed to 1e-14
Changing Tseed to 1e-05
Changing Tseed to 1e-15
Changing Tseed to 0.0001
Changing Tseed to 1e-16
+Changing Tseed to 1e-09
Changing Tseed to 1e-11
Changing Tseed to 1e-08
Changing Tseed to 1e-12
Changing Tseed to 1e-07
Changing Tseed to 1e-13
Changing Tseed to 1e-06
Changing Tseed to 1e-14
Changing Tseed to 1e-05
Changing Tseed to 1e-15
Changing Tseed to 0.0001
Changing Tseed to 1e-16
+Changing Tseed to 1e-09
Changing Tseed to 1e-11
Changing Tseed to 1e-08
Changing Tseed to 1e-12
Changing Tseed to 1e-07
Changing Tseed to 1e-13
Changing Tseed to 1e-06
Changing Tseed to 1e-14
Changing Tseed to 1e-05
Changing Tseed to 1e-15
Changing Tseed to 0.0001
Changing Tseed to 1e-16
+Changing Tseed to 1e-09
Changing Tseed to 1e-11
Changing Tseed to 1e-08
Changing Tseed to 1e-12
Changing Tseed to 1e-07
Changing Tseed to 1e-13
Changing Tseed to 1e-06
Changing Tseed to 1e-14
Changing Tseed to 1e-05
Changing Tseed to 1e-15
Changing Tseed to 0.0001
Changing Tseed to 1e-16
+Changing Tseed to 1e-09
Changing Tseed to 1e-11
Changing Tseed to 1e-08
Changing Tseed to 1e-12
Changing Tseed to 1e-07
Changing Tseed to 1e-13
Changing Tseed to 1e-06
Changing Tseed to 1e-14
Changing Tseed to 1e-05
Changing Tseed to 1e-15
Changing Tseed to 0.0001
Changing Tseed to 1e-16
+Changing Tseed to 1e-09
Changing Tseed to 1e-11
Changing Tseed to 1e-08
Changing Tseed to 1e-12
Changing Tseed to 1e-07
Changing Tseed to 1e-13
Changing Tseed to 1e-06
Changing Tseed to 1e-14
Changing Tseed to 1e-05
Changing Tseed to 1e-15
Changing Tseed to 0.0001
Changing Tseed to 1e-16
+Changing Tseed to 1e-09
Changing Tseed to 1e-11
Changing Tseed to 1e-08
Changing Tseed to 1e-12
Changing Tseed to 1e-07
Changing Tseed to 1e-13
Changing Tseed to 1e-06
Changing Tseed to 1e-14
Changing Tseed to 1e-05
Changing Tseed to 1e-15
Changing Tseed to 0.0001
Changing Tseed to 1e-16
+Changing Tseed to 1e-09
Changing Tseed to 1e-11
Changing Tseed to 1e-08
Changing Tseed to 1e-12
Changing Tseed to 1e-07
Changing Tseed to 1e-13
Changing Tseed to 1e-06
Changing Tseed to 1e-14
Changing Tseed to 1e-05
Changing Tseed to 1e-15
Changing Tseed to 0.0001
Changing Tseed to 1e-16
+Changing Tseed to 1e-09
Changing Tseed to 1e-11
Changing Tseed to 1e-08
Changing Tseed to 1e-12
Changing Tseed to 1e-07
Changing Tseed to 1e-13
Changing Tseed to 1e-06
Changing Tseed to 1e-14
Changing Tseed to 1e-05
Changing Tseed to 1e-15
Changing Tseed to 0.0001
Changing Tseed to 1e-16
+Changing Tseed to 1e-09
Changing Tseed to 1e-11
Changing Tseed to 1e-08
Changing Tseed to 1e-12
Changing Tseed to 1e-07
Changing Tseed to 1e-13
Changing Tseed to 1e-06
Changing Tseed to 1e-14
Changing Tseed to 1e-05
Changing Tseed to 1e-15
Changing Tseed to 0.0001
Changing Tseed to 1e-16
+Changing Tseed to 1e-09
Changing Tseed to 1e-11
Changing Tseed to 1e-08
Changing Tseed to 1e-12
Changing Tseed to 1e-07
Changing Tseed to 1e-13
Changing Tseed to 1e-06
Changing Tseed to 1e-14
Changing Tseed to 1e-05
Changing Tseed to 1e-15
Changing Tseed to 0.0001
Changing Tseed to 1e-16
+Changing Tseed to 1e-09
Changing Tseed to 1e-11
Changing Tseed to 1e-08
Changing Tseed to 1e-12
Changing Tseed to 1e-07
Changing Tseed to 1e-13
Changing Tseed to 1e-06
Changing Tseed to 1e-14
Changing Tseed to 1e-05
Changing Tseed to 1e-15
Changing Tseed to 0.0001
Changing Tseed to 1e-16
+Changing Tseed to 1e-09
Changing Tseed to 1e-11
Changing Tseed to 1e-08
Changing Tseed to 1e-12
Changing Tseed to 1e-07
Changing Tseed to 1e-13
Changing Tseed to 1e-06
Changing Tseed to 1e-14
Changing Tseed to 1e-05
Changing Tseed to 1e-15
Changing Tseed to 0.0001
Changing Tseed to 1e-16
+Changing Tseed to 1e-09
Changing Tseed to 1e-11
Changing Tseed to 1e-08
Changing Tseed to 1e-12
Changing Tseed to 1e-07
Changing Tseed to 1e-13
Changing Tseed to 1e-06
Changing Tseed to 1e-14
Changing Tseed to 1e-05
Changing Tseed to 1e-15
Changing Tseed to 0.0001
Changing Tseed to 1e-16
+Changing Tseed to 1e-09
Changing Tseed to 1e-11
Changing Tseed to 1e-08
Changing Tseed to 1e-12
Changing Tseed to 1e-07
Changing Tseed to 1e-13
Changing Tseed to 1e-06
Changing Tseed to 1e-14
Changing Tseed to 1e-05
Changing Tseed to 1e-15
Changing Tseed to 0.0001
Changing Tseed to 1e-16
+Changing Tseed to 1e-09
Changing Tseed to 1e-11
Changing Tseed to 1e-08
Changing Tseed to 1e-12
Changing Tseed to 1e-07
Changing Tseed to 1e-13
Changing Tseed to 1e-06
Changing Tseed to 1e-14
Changing Tseed to 1e-05
Changing Tseed to 1e-15
Changing Tseed to 0.0001
Changing Tseed to 1e-16
+Changing Tseed to 1e-09
Changing Tseed to 1e-11
Changing Tseed to 1e-08
Changing Tseed to 1e-12
Changing Tseed to 1e-07
Changing Tseed to 1e-13
Changing Tseed to 1e-06
Changing Tseed to 1e-14
Changing Tseed to 1e-05
Changing Tseed to 1e-15
Changing Tseed to 0.0001
Changing Tseed to 1e-16
+Changing Tseed to 1e-09
Changing Tseed to 1e-11
Changing Tseed to 1e-08
Changing Tseed to 1e-12
Changing Tseed to 1e-07
Changing Tseed to 1e-13
Changing Tseed to 1e-06
Changing Tseed to 1e-14
Changing Tseed to 1e-05
Changing Tseed to 1e-15
Changing Tseed to 0.0001
Changing Tseed to 1e-16
+Changing Tseed to 1e-09
Changing Tseed to 1e-11
Changing Tseed to 1e-08
Changing Tseed to 1e-12
Changing Tseed to 1e-07
Changing Tseed to 1e-13
Changing Tseed to 1e-06
Changing Tseed to 1e-14
Changing Tseed to 1e-05
Changing Tseed to 1e-15
Changing Tseed to 0.0001
Changing Tseed to 1e-16
+Changing Tseed to 1e-09
Changing Tseed to 1e-11
Changing Tseed to 1e-08
Changing Tseed to 1e-12
Changing Tseed to 1e-07
Changing Tseed to 1e-13
Changing Tseed to 1e-06
Changing Tseed to 1e-14
Changing Tseed to 1e-05
Changing Tseed to 1e-15
Changing Tseed to 0.0001
Changing Tseed to 1e-16
+Changing Tseed to 1e-09
Changing Tseed to 1e-11
Changing Tseed to 1e-08
Changing Tseed to 1e-12
Changing Tseed to 1e-07
Changing Tseed to 1e-13
Changing Tseed to 1e-06
Changing Tseed to 1e-14
Changing Tseed to 1e-05
Changing Tseed to 1e-15
Changing Tseed to 0.0001
Changing Tseed to 1e-16
+Changing Tseed to 1e-09
Changing Tseed to 1e-11
Changing Tseed to 1e-08
Changing Tseed to 1e-12
Changing Tseed to 1e-07
Changing Tseed to 1e-13
Changing Tseed to 1e-06
Changing Tseed to 1e-14
Changing Tseed to 1e-05
Changing Tseed to 1e-15
Changing Tseed to 0.0001
Changing Tseed to 1e-16
+Changing Tseed to 1e-09
Changing Tseed to 1e-11
Changing Tseed to 1e-08
Changing Tseed to 1e-12
Changing Tseed to 1e-07
Changing Tseed to 1e-13
Changing Tseed to 1e-06
Changing Tseed to 1e-14
Changing Tseed to 1e-05
Changing Tseed to 1e-15
Changing Tseed to 0.0001
Changing Tseed to 1e-16
+Changing Tseed to 1e-09
Changing Tseed to 1e-11
Changing Tseed to 1e-08
Changing Tseed to 1e-12
Changing Tseed to 1e-07
Changing Tseed to 1e-13
Changing Tseed to 1e-06
Changing Tseed to 1e-14
Changing Tseed to 1e-05
Changing Tseed to 1e-15
Changing Tseed to 0.0001
Changing Tseed to 1e-16
+Changing Tseed to 1e-09
Changing Tseed to 1e-11
Changing Tseed to 1e-08
Changing Tseed to 1e-12
Changing Tseed to 1e-07
Changing Tseed to 1e-13
Changing Tseed to 1e-06
Changing Tseed to 1e-14
Changing Tseed to 1e-05
Changing Tseed to 1e-15
Changing Tseed to 0.0001
Changing Tseed to 1e-16
+Changing Tseed to 1e-09
Changing Tseed to 1e-11
Changing Tseed to 1e-08
Changing Tseed to 1e-12
Changing Tseed to 1e-07
Changing Tseed to 1e-13
Changing Tseed to 1e-06
Changing Tseed to 1e-14
Changing Tseed to 1e-05
Changing Tseed to 1e-15
Changing Tseed to 0.0001
Changing Tseed to 1e-16
+Changing Tseed to 1e-09
Changing Tseed to 1e-11
Changing Tseed to 1e-08
Changing Tseed to 1e-12
Changing Tseed to 1e-07
Changing Tseed to 1e-13
Changing Tseed to 1e-06
Changing Tseed to 1e-14
Changing Tseed to 1e-05
Changing Tseed to 1e-15
Changing Tseed to 0.0001
Changing Tseed to 1e-16
+Changing Tseed to 1e-09
Changing Tseed to 1e-11
Changing Tseed to 1e-08
Changing Tseed to 1e-12
Changing Tseed to 1e-07
Changing Tseed to 1e-13
Changing Tseed to 1e-06
Changing Tseed to 1e-14
Changing Tseed to 1e-05
Changing Tseed to 1e-15
Changing Tseed to 0.0001
Changing Tseed to 1e-16
+Changing Tseed to 1e-09
Changing Tseed to 1e-11
Changing Tseed to 1e-08
Changing Tseed to 1e-12
Changing Tseed to 1e-07
Changing Tseed to 1e-13
Changing Tseed to 1e-06
Changing Tseed to 1e-14
Changing Tseed to 1e-05
Changing Tseed to 1e-15
Changing Tseed to 0.0001
Changing Tseed to 1e-16
+Changing Tseed to 1e-09
Changing Tseed to 1e-11
Changing Tseed to 1e-08
Changing Tseed to 1e-12
Changing Tseed to 1e-07
Changing Tseed to 1e-13
Changing Tseed to 1e-06
Changing Tseed to 1e-14
Changing Tseed to 1e-05
Changing Tseed to 1e-15
Changing Tseed to 0.0001
Changing Tseed to 1e-16
+Changing Tseed to 1e-09
Changing Tseed to 1e-11
Changing Tseed to 1e-08
Changing Tseed to 1e-12
Changing Tseed to 1e-07
Changing Tseed to 1e-13
Changing Tseed to 1e-06
Changing Tseed to 1e-14
Changing Tseed to 1e-05
Changing Tseed to 1e-15
Changing Tseed to 0.0001
Changing Tseed to 1e-16
+Changing Tseed to 1e-09
Changing Tseed to 1e-11
to 1.125e-11
Heightened Def Con from 1.125e-11 +++++++++++++++++++++++++++to 2.26125e-09
Heightened Def Con from 2.26125e-09 +++++++++++++++++++to 2.26394e-09
Heightened Def Con from 2.26394e-09 +++++++++++++++to 2.26398e-09
Heightened Def Con from 1.91187e-08 to 2.01343e-08
Heightened Def Con from 4.9982e-05 to 4.9983e-05
Heightened Def Con from 5.5358e-05 to 5.53581e-05
Heightened Def Con from 5.66487e-05 to 5.66587e-05
Heightened Def Con from 6.0593e-05 to 6.05931e-05
Heightened Def Con from 6.54951e-05 to 6.54953e-05
Heightened Def Con from 6.63582e-05 to 6.63682e-05
Heightened Def Con from 7.01299e-05 to 7.013e-05
Heightened Def Con from 7.17482e-05 to 7.17552e-05
Heightened Def Con from 7.46161e-05 to 7.46162e-05
Heightened Def Con from 7.90605e-05 to 7.90614e-05
Heightened Def Con from 7.90871e-05 to 7.90873e-05
Heightened Def Con from 7.9097e-05 to 7.90984e-05
Heightened Def Con from 8.36497e-05 to 8.36498e-05
Heightened Def Con from 8.36763e-05 to 8.36764e-05
Heightened Def Con from 8.3686e-05 to 8.3695e-05
Heightened Def Con from 8.79023e-05 to 8.79183e-05
Heightened Def Con from 8.85127e-05 to 8.85129e-05
Heightened Def Con from 8.85226e-05 to 8.85316e-05
Heightened Def Con from 9.26493e-05 to 9.26653e-05
Heightened Def Con from 9.36499e-05 to 9.36509e-05
Heightened Def Con from 9.3676e-05 to 9.36761e-05
Heightened Def Con from 9.36857e-05 to 9.36947e-05
Heightened Def Con from 9.91202e-05 to 9.91203e-05
Heightened Def Con from 0.000104615 to 0.000104616
Heightened Def Con from 0.000109895 to 0.000109896
Heightened Def Con from 0.000114842 to 0.000114843
Heightened Def Con from 0.000115626 to 0.000115635
Heightened Def Con from 0.000119507 to 0.000119508
Heightened Def Con from 0.000124003 to 0.000124003
Heightened Def Con from 0.00012847 to 0.00012847
Heightened Def Con from 0.000132082 to 0.000132093
Heightened Def Con from 0.000133008 to 0.000133008
Heightened Def Con from 0.000133036 to 0.000133036
Heightened Def Con from 0.000133045 to 0.000133054
Heightened Def Con from 0.000137232 to 0.000137232
Heightened Def Con from 0.000137803 to 0.000137803
Heightened Def Con from 0.000137824 to 0.00013783
Heightened Def Con from 0.000137832 to 0.000137832
Heightened Def Con from 0.000137842 to 0.00013785
Heightened Def Con from 0.000142015 to 0.000142015
Heightened Def Con from 0.000142948 to 0.000142948
Heightened Def Con from 0.000142959 to 0.000142966
Heightened Def Con from 0.000146539 to 0.000146539
Heightened Def Con from 0.000148364 to 0.000148365
Heightened Def Con from 0.000150948 to 0.000150948
Heightened Def Con from 0.000150949 to 0.000150949
Heightened Def Con from 0.000153843 to 0.000153843
Heightened Def Con from 0.000153867 to 0.000153869
Heightened Def Con from 0.00015387 to 0.00015387
Heightened Def Con from 0.00015538 to 0.000155385
Heightened Def Con from 0.000155386 to 0.000155386
Heightened Def Con from 0.000155397 to 0.000155407
Heightened Def Con from 0.000159186 to 0.000159188
Heightened Def Con from 0.000159189 to 0.000159189
Heightened Def Con from 0.000159988 to 0.000159988
Heightened Def Con from 0.00016 to 0.000160006
Heightened Def Con from 0.000164178 to 0.000164182
Heightened Def Con from 0.000164183 to 0.000164183
Heightened Def Con from 0.000164908 to 0.000164908
Heightened Def Con from 0.00016492 to 0.000164926
Heightened Def Con from 0.00016888 to 0.000168881
Heightened Def Con from 0.000170211 to 0.000170211
Heightened Def Con from 0.000170223 to 0.000170233
Heightened Def Con from 0.000173393 to 0.000173394
Heightened Def Con from 0.000175797 to 0.000175798
Heightened Def Con from 0.000175801 to 0.000175818
Heightened Def Con from 0.000177854 to 0.000177854
Heightened Def Con from 0.00018133 to 0.000181332
Heightened Def Con from 0.000181332 to 0.000181333
Heightened Def Con from 0.000182392 to 0.000182398
Heightened Def Con from 0.000182398 to 0.000182399
Heightened Def Con from 0.000182409 to 0.00018242
Heightened Def Con from 0.000186541 to 0.000186541
Heightened Def Con from 0.000187149 to 0.000187154
Heightened Def Con from 0.000187156 to 0.000187156
Heightened Def Con from 0.000187167 to 0.000187174
Heightened Def Con from 0.000191377 to 0.000191379
Heightened Def Con from 0.000191381 to 0.000191381
Heightened Def Con from 0.0001922 to 0.000192223
Heightened Def Con from 0.000192226 to 0.000192226
Heightened Def Con from 0.000192236 to 0.000192244
Heightened Def Con from 0.000195928 to 0.000195928
Heightened Def Con from 0.000197606 to 0.000197609
Heightened Def Con from 0.00019761 to 0.00019761
Heightened Def Con from 0.000197621 to 0.000197632
Heightened Def Con from 0.000200344 ++to 0.000200344
Heightened Def Con from 0.000203094 to 0.000203096
Heightened Def Con from 0.00020312 to 0.000203121
Heightened Def Con from 0.000204762 to 0.000204767
Heightened Def Con from 0.000204768 to 0.000204768
Heightened Def Con from 0.000208452 to 0.000208452
Heightened Def Con from 0.000208474 to 0.000208477
Heightened Def Con from 0.000208479 to 0.000208479
Heightened Def Con from 0.00020934 to 0.000209341
Heightened Def Con from 0.000209352 to 0.000209358
Heightened Def Con from 0.000213514 to 0.000213517
Heightened Def Con from 0.000213517 to 0.000213517
Heightened Def Con from 0.000214214 to 0.000214214
Heightened Def Con from 0.000214225 to 0.000214231
Heightened Def Con from 0.000218246 to 0.000218248
Heightened Def Con from 0.00021825 to 0.00021825
Heightened Def Con from 0.000219467 to 0.000219467
Heightened Def Con from 0.000219479 to 0.000219489
Heightened Def Con from 0.000222754 to 0.000222778
Heightened Def Con from 0.00022278 to 0.00022278
Heightened Def Con from 0.000225026 to 0.000225026
Heightened Def Con from 0.00022724 to 0.000227241
Heightened Def Con from 0.000230556 to 0.000230556
Heightened Def Con from 0.000230584 to 0.000230584
Heightened Def Con from 0.00023176 to 0.000231764
Heightened Def Con from 0.000231766 to 0.000231766
Heightened Def Con from 0.000231777 to 0.000231788
Heightened Def Con from 0.000235856 to 0.000235856
Heightened Def Con from 0.000236488 to 0.000236488
Heightened Def Con from 0.000236499 to 0.000236506
Heightened Def Con from 0.000240733 to 0.000240733
Heightened Def Con from 0.000241512 to 0.000241512
Heightened Def Con from 0.000241522 to 0.000241529
Heightened Def Con from 0.000245321 to 0.000245321
Heightened Def Con from 0.000246831 to 0.000246831
Heightened Def Con from 0.00024685 to 0.000246858
Heightened Def Con from 0.000246859 to 0.000246859
Heightened Def Con from 0.000246869 to 0.00024688
Heightened Def Con from 0.00024974 to 0.00024974
Heightened Def Con from 0.000252342 to 0.000252366
Heightened Def Con from 0.000252367 to 0.000252368
Heightened Def Con from 0.000254155 to 0.000254155
Heightened Def Con from 0.000257757 to 0.000257761
Heightened Def Con from 0.000257761 to 0.000257763
Heightened Def Con from 0.000258696 to 0.000258698
Heightened Def Con from 0.000258708 to 0.000258714
Heightened Def Con from 0.000262818 to 0.000262818
Heightened Def Con from 0.000262842 to 0.000262845
Heightened Def Con from 0.000262846 to 0.000262846
Heightened Def Con from 0.000263527 to 0.000263527
Heightened Def Con from 0.000263538 to 0.000263544
Heightened Def Con from 0.000267616 to 0.000267616
Heightened Def Con from 0.000268724 to 0.000268724
Heightened Def Con from 0.000268736 to 0.000268742
Heightened Def Con from 0.000272166 to 0.000272166
Heightened Def Con from 0.000274252 to 0.000274252
Heightened Def Con from 0.000276601 +to 0.000276601
Heightened Def Con from 0.000276627 to 0.000276628
Heightened Def Con from 0.000276629 to 0.00027663
Heightened Def Con from 0.000279839 to 0.000279839
Heightened Def Con from 0.000281137 to 0.000281137
Heightened Def Con from 0.000281147 to 0.000281158
Heightened Def Con from 0.000285155 to 0.000285156
Heightened Def Con from 0.000285798 to 0.000285821
Heightened Def Con from 0.000285824 to 0.000285824
Heightened Def Con from 0.000285834 to 0.000285842
Heightened Def Con from 0.000290084 to 0.000290086
Heightened Def Con from 0.000290088 to 0.000290088
Heightened Def Con from 0.000290797 to 0.0002908
Heightened Def Con from 0.000290801 to 0.000290801
Heightened Def Con from 0.000290812 to 0.000290819
Heightened Def Con from 0.000294704 to 0.000294704
Heightened Def Con from 0.000296082 to 0.000296082
Heightened Def Con from 0.00029611 to 0.00029611
Heightened Def Con from 0.000296121 to 0.000296132
Heightened Def Con from 0.00029914 to 0.00029914
Heightened Def Con from 0.000301613 to 0.000301613
Heightened Def Con from 0.000303543 to 0.000303543
Heightened Def Con from 0.00030701 to 0.00030701
Heightened Def Con from 0.000307037 to 0.000307038
Heightened Def Con from 0.00030806 to 0.00030806
Heightened Def Con from 0.000308071 to 0.000308081
Heightened Def Con from 0.00031214 to 0.00031214
Heightened Def Con from 0.000312169 to 0.000312169
Heightened Def Con from 0.00031284 to 0.00031284
Heightened Def Con from 0.000312852 to 0.000312858
Heightened Def Con from 0.000316951 to 0.000316952
Heightened Def Con from 0.000316974 to 0.000316976
Heightened Def Con from 0.000316977 to 0.000316977
Heightened Def Con from 0.000317984 to 0.000317984
Heightened Def Con from 0.000317996 to 0.000318002
Heightened Def Con from 0.000321524 to 0.000321524
Heightened Def Con from 0.000321524 to 0.000321524
Heightened Def Con from 0.000321547 to 0.000321549
Heightened Def Con from 0.000321551 to 0.000321551
Heightened Def Con from 0.000323484 to 0.000323484
Heightened Def Con from 0.000326014 to 0.000326016
Heightened Def Con from 0.000326017 to 0.000326018
Heightened Def Con from 0.000329081 to 0.000329082
Heightened Def Con from 0.000329084 to 0.000329085
Heightened Def Con from 0.000330503 to 0.000330509
Heightened Def Con from 0.000330511 to 0.000330511
Heightened Def Con from 0.000330521 to 0.000330532
Heightened Def Con from 0.000334448 to 0.000334448
Heightened Def Con from 0.000335139 to 0.000335141
Heightened Def Con from 0.000335165 to 0.000335165
Heightened Def Con from 0.000335176 to 0.000335183
Heightened Def Con from 0.000339432 to 0.000339432
Heightened Def Con from 0.000340094 to 0.0003401
Heightened Def Con from 0.0003401 to 0.000340101
Heightened Def Con from 0.000340111 to 0.000340118
Heightened Def Con from 0.000344082 to 0.000344082
Heightened Def Con from 0.000345338 to 0.000345338
Heightened Def Con from 0.000345366 to 0.000345366
Heightened Def Con from 0.000345376 to 0.000345384
Heightened Def Con from 0.000348536 to 0.000348536
Heightened Def Con from 0.000350857 to 0.000350858
Heightened Def Con from 0.000350859 to 0.000350878
Heightened Def Con from 0.000352933 to 0.000352933
Heightened Def Con from 0.000356282 to 0.000356282
Heightened Def Con from 0.000356309 to 0.00035631
Heightened Def Con from 0.000357429 to 0.00035743
Heightened Def Con from 0.000357441 to 0.000357451
Heightened Def Con from 0.000361485 to 0.000361486
Heightened Def Con from 0.00036216 to 0.00036216
Heightened Def Con from 0.000362172 to 0.000362178
Heightened Def Con from 0.000366335 to 0.000366335
Heightened Def Con from 0.000367259 to 0.000367259
Heightened Def Con from 0.000367271 to 0.000367277
Heightened Def Con from 0.000370906 to 0.00037093
Heightened Def Con from 0.000370932 to 0.000370932
Heightened Def Con from 0.000372705 to 0.00037271
Heightened Def Con from 0.00037271 to 0.000372711
Heightened Def Con from 0.000372722 to 0.000372732
Heightened Def Con from 0.000375403 to 0.000375404
Heightened Def Con from 0.000375406 to 0.000375406
Heightened Def Con from 0.000378316 to 0.000378317
Heightened Def Con from 0.000379888 to 0.000379888
Heightened Def Con from 0.000379899 to 0.00037991
Heightened Def Con from 0.000383725 to 0.000383727
Heightened Def Con from 0.000383728 to 0.000383729
Heightened Def Con from 0.000384513 to 0.000384513
Heightened Def Con from 0.000384524 to 0.000384532
Heightened Def Con from 0.000388769 to 0.000388769
Heightened Def Con from 0.000389377 to 0.000389377
Heightened Def Con from 0.000389397 to 0.000389403
Heightened Def Con from 0.000389404 to 0.000389405
Heightened Def Con from 0.000389414 to 0.000389422
Heightened Def Con from 0.000393455 to 0.000393455
Heightened Def Con from 0.000394598 to 0.0003946
Heightened Def Con from 0.000394618 to 0.000394624
Heightened Def Con from 0.000394625 to 0.000394625
Heightened Def Con from 0.000394636 to 0.000394645
Heightened Def Con from 0.000397926 to 0.000397927
Heightened Def Con from 0.000400099 to 0.000400099
Heightened Def Con from 0.000402327 to 0.000402327
Heightened Def Con from 0.00040233 to 0.000402349
Heightened Def Con from 0.000405547 to 0.000405549
Heightened Def Con from 0.000405573 to 0.000405573
Heightened Def Con from 0.000406803 to 0.000406803
Heightened Def Con from 0.000406815 to 0.000406825
Heightened Def Con from 0.000410796 to 0.000410796
Heightened Def Con from 0.000411495 to 0.000411495
Heightened Def Con from 0.000411506 to 0.000411512
Heightened Def Con from 0.000415687 to 0.000415687
Heightened Def Con from 0.00041653 to 0.000416531
Heightened Def Con from 0.000416541 to 0.000416547
Heightened Def Con from 0.000420307 to 0.000420311
Heightened Def Con from 0.000420312 to 0.000420313
Heightened Def Con from 0.000421945 to 0.000421949
Heightened Def Con from 0.00042195 to 0.00042195
Heightened Def Con from 0.000421961 to 0.00042197
Heightened Def Con from 0.000424795 to 0.000424796
Heightened Def Con from 0.000427555 to 0.000427555
Heightened Def Con from 0.000429259 to 0.000429266
Heightened Def Con from 0.000429268 to 0.000429269
Heightened Def Con from 0.000433012 to 0.000433012
Heightened Def Con from 0.000433865 to 0.000433865
Heightened Def Con from 0.000433876 to 0.000433883
Heightened Def Con from 0.000438096 to 0.000438096
Heightened Def Con from 0.000438714 to 0.000438714
Heightened Def Con from 0.000438724 to 0.000438732
Heightened Def Con from 0.000442832 to 0.000442832
Heightened Def Con from 0.00044389 to 0.00044389
Heightened Def Con from 0.000443901 to 0.000443908
Heightened Def Con from 0.000447321 to 0.000447323
Heightened Def Con from 0.000447324 to 0.000447325
Heightened Def Con from 0.000449314 to 0.000449314
Heightened Def Con from 0.000449341 to 0.000449342
Heightened Def Con from 0.000451725 to 0.000451726
Heightened Def Con from 0.000454829 to 0.000454832
Heightened Def Con from 0.000454834 to 0.000454834
Heightened Def Con from 0.000456175 to 0.000456179
Heightened Def Con from 0.000456181 to 0.000456182
Heightened Def Con from 0.000456192 to 0.000456202
Heightened Def Con from 0.0004601 to 0.0004601
Heightened Def Con from 0.000460833 to 0.000460834
Heightened Def Con from 0.000460845 to 0.000460851
Heightened Def Con from 0.000465034 to 0.000465034
Heightened Def Con from 0.000465815 to 0.000465815
Heightened Def Con from 0.000465826 to 0.000465832
Heightened Def Con from 0.000469662 to 0.000469663
Heightened Def Con from 0.00046969 to 0.000469691
Heightened Def Con from 0.000471185 to 0.000471185
Heightened Def Con from 0.000471197 to 0.000471207
Heightened Def Con from 0.000474156 to 0.000474157
Heightened Def Con from 0.000474157 to 0.000474157
Heightened Def Con from 0.000474181 to 0.000474183
Heightened Def Con from 0.000474184 to 0.000474184
Heightened Def Con from 0.000476782 to 0.000476782
Heightened Def Con from 0.00047865 to 0.000478651
Heightened Def Con from 0.000482277 to 0.000482279
Heightened Def Con from 0.00048228 to 0.00048228
Heightened Def Con from 0.000483217 to 0.000483222
Heightened Def Con from 0.000483224 to 0.000483224
Heightened Def Con from 0.000483234 to 0.000483243
Heightened Def Con from 0.000487422 to 0.000487422
Heightened Def Con from 0.000488024 to 0.000488029
Heightened Def Con from 0.000488031 to 0.000488031
Heightened Def Con from 0.000488041 to 0.000488049
Heightened Def Con from 0.000492192 to 0.000492194
Heightened Def Con from 0.000492195 to 0.000492195
Heightened Def Con from 0.000493134 to 0.000493134
Heightened Def Con from 0.000493134 to 0.000493134
Heightened Def Con from 0.000493134 to 0.000493135
Heightened Def Con from 0.000493135 to 0.000493136
Heightened Def Con from 0.000493161 to 0.000493161
Heightened Def Con from 0.000493171 to 0.000493178
Heightened Def Con from 0.000496713 to 0.000496714
Heightened Def Con from 0.000498558 to 0.000498559
Heightened Def Con from 0.000498585 to 0.000498585
Heightened Def Con from 0.000501121 to 0.000501121
Heightened Def Con from 0.000501122 to 0.000501122
Heightened Def Con from 0.000504061 to 0.000504063
Heightened Def Con from 0.000504086 to 0.000504087
Heightened Def Con from 0.000504089 to 0.000504089
Heightened Def Con from 0.000505559 to 0.000505559
Heightened Def Con from 0.000505571 to 0.000505581
Heightened Def Con from 0.000509396 to 0.000509397
Heightened Def Con from 0.000510174 to 0.000510175
Heightened Def Con from 0.000510186 to 0.000510192
Heightened Def Con from 0.000514349 to 0.000514349
Heightened Def Con from 0.000514349 to 0.000514349
Heightened Def Con from 0.000514349 to 0.000514351
Heightened Def Con from 0.000514376 to 0.000514376
Heightened Def Con from 0.000515108 to 0.000515108
Heightened Def Con from 0.000515119 to 0.000515125
Heightened Def Con from 0.000519059 to 0.000519061
Heightened Def Con from 0.000519063 to 0.000519063
Heightened Def Con from 0.000520433 to 0.000520433
Heightened Def Con from 0.000520444 to 0.000520454
Heightened Def Con from 0.000523545 to 0.000523545
Heightened Def Con from 0.000523572 to 0.000523573
Heightened Def Con from 0.000526016 to 0.000526016
Heightened Def Con from 0.000528034 to 0.000528035
Heightened Def Con from 0.000531543 to 0.000531545
Heightened Def Con from 0.000531546 to 0.000531546
Heightened Def Con from 0.000532557 to 0.000532557
Heightened Def Con from 0.000532578 to 0.000532584
Heightened Def Con from 0.000532585 to 0.000532585
Heightened Def Con from 0.000532595 to 0.000532603
Heightened Def Con from 0.000536737 to 0.000536738
Heightened Def Con from 0.000537346 to 0.000537351
Heightened Def Con from 0.000537353 to 0.000537353
Heightened Def Con from 0.000537363 to 0.000537371
Heightened Def Con from 0.000541562 to 0.000541562
Heightened Def Con from 0.000542431 to 0.000542437
Heightened Def Con from 0.000542438 to 0.000542438
Heightened Def Con from 0.000542449 to 0.000542456
Heightened Def Con from 0.000546102 to 0.000546103
Heightened Def Con from 0.00054783 to 0.00054783
Heightened Def Con from 0.000547841 to 0.000547845
Heightened Def Con from 0.000550515 to 0.000550516
Heightened Def Con from 0.000550517 to 0.000550518
Heightened Def Con from 0.000553313 to 0.000553313
Heightened Def Con from 0.000553337 to 0.000553338
Heightened Def Con from 0.00055334 to 0.00055334
Heightened Def Con from 0.000554936 to 0.000554942
Heightened Def Con from 0.000554944 to 0.000554944
Heightened Def Con from 0.000558659 to 0.000558659
Heightened Def Con from 0.000558661 to 0.000558685
Heightened Def Con from 0.000558687 to 0.000558687
Heightened Def Con from 0.000559526 to 0.000559527
Heightened Def Con from 0.000559538 to 0.000559545
Heightened Def Con from 0.000563709 to 0.000563711
Heightened Def Con from 0.000563712 to 0.000563713
Heightened Def Con from 0.000564412 to 0.000564413
Heightened Def Con from 0.000564423 to 0.00056443
Heightened Def Con from 0.000568431 to 0.000568433
Heightened Def Con from 0.000568434 to 0.000568434
Heightened Def Con from 0.000569675 to 0.000569675
Heightened Def Con from 0.000569687 to 0.000569697
Heightened Def Con from 0.000572934 to 0.000572958
Heightened Def Con from 0.00057296 to 0.00057296
Heightened Def Con from 0.000575247 to 0.000575247
Heightened Def Con from 0.000577394 to 0.000577394
Heightened Def Con from 0.000577421 to 0.000577421
Heightened Def Con from 0.000580798 to 0.000580798
Heightened Def Con from 0.000581924 to 0.000581924
Heightened Def Con from 0.000581952 to 0.000581952
Heightened Def Con from 0.000581962 to 0.00058197
Heightened Def Con from 0.000586053 to 0.000586053
Heightened Def Con from 0.000586683 to 0.000586683
Heightened Def Con from 0.000586693 to 0.000586701
Heightened Def Con from 0.000590913 to 0.000590915
Heightened Def Con from 0.000590916 to 0.000590916
Heightened Def Con from 0.000591716 to 0.000591719
Heightened Def Con from 0.000591721 to 0.000591721
Heightened Def Con from 0.000591731 to 0.000591738
Heightened Def Con from 0.000595469 to 0.000595469
Heightened Def Con from 0.000595496 to 0.000595496
Heightened Def Con from 0.000597049 to 0.000597049
Heightened Def Con from 0.000597051 to 0.000597074
Heightened Def Con from 0.000597077 to 0.000597077
Heightened Def Con from 0.000597088 to 0.00059709
Heightened Def Con from 0.000599914 to 0.000599914
Heightened Def Con from 0.000602588 to 0.000602588
Heightened Def Con from 0.000602589 to 0.000602589
Heightened Def Con from 0.000604327 to 0.000604328
Heightened Def Con from 0.000607972 to 0.000607972
Heightened Def Con from 0.000608884 to 0.000608885
Heightened Def Con from 0.000608896 to 0.000608902
Heightened Def Con from 0.000613017 to 0.000613017
Heightened Def Con from 0.000613039 to 0.000613043
Heightened Def Con from 0.000613044 to 0.000613045
Heightened Def Con from 0.000613717 to 0.000613717
Heightened Def Con from 0.000613729 to 0.000613735
Heightened Def Con from 0.000617802 to 0.000617802
Heightened Def Con from 0.000618933 to 0.000618933
Heightened Def Con from 0.000618944 to 0.00061895
Heightened Def Con from 0.000622343 to 0.000622345
Heightened Def Con from 0.000622347 to 0.000622347
Heightened Def Con from 0.000624472 to 0.000624472
Heightened Def Con from 0.000626808 to 0.000626808
Heightened Def Con from 0.000626809 to 0.000626831
Heightened Def Con from 0.00063005 to 0.000630052
Heightened Def Con from 0.000630053 to 0.000630053
Heightened Def Con from 0.000631314 to 0.00063132
Heightened Def Con from 0.000631321 to 0.000631322
Heightened Def Con from 0.000631331 to 0.000631342
Heightened Def Con from 0.000635352 to 0.000635354
Heightened Def Con from 0.000635355 to 0.000635355
Heightened Def Con from 0.000635991 to 0.000635992
Heightened Def Con from 0.00063601 to 0.000636016
Heightened Def Con from 0.000636017 to 0.000636017
Heightened Def Con from 0.000636028 to 0.000636035
Heightened Def Con from 0.000640269 to 0.000640271
Heightened Def Con from 0.000640272 to 0.000640273
Heightened Def Con from 0.00064101 to 0.000641011
Heightened Def Con from 0.000641021 to 0.000641028
Heightened Def Con from 0.000644878 to 0.000644878
Heightened Def Con from 0.00064633 to 0.000646331
Heightened Def Con from 0.00064634 to 0.000646351
Heightened Def Con from 0.000649309 to 0.000649311
Heightened Def Con from 0.000649312 to 0.000649312
Heightened Def Con from 0.000651808 +++++++++++++++to 0.000651809
Heightened Def Con from 0.000651835 to 0.000651835
Heightened Def Con from 0.00065372 to 0.00065372
Heightened Def Con from 0.000657224 to 0.000657249
Heightened Def Con from 0.000657251 to 0.000657251
Heightened Def Con from 0.000658245 to 0.000658245
Heightened Def Con from 0.000658256 to 0.000658262
Heightened Def Con from 0.000662365 to 0.000662368
Heightened Def Con from 0.000662369 to 0.000662369
Heightened Def Con from 0.000663034 to 0.000663034
Heightened Def Con from 0.000663046 to 0.000663052
Heightened Def Con from 0.000667164 to 0.000667165
Heightened Def Con from 0.000668194 to 0.000668195
Heightened Def Con from 0.000668206 to 0.000668212
Heightened Def Con from 0.000671705 to 0.000671729
Heightened Def Con from 0.000671731 to 0.000671731
Heightened Def Con from 0.000673697 to 0.000673702
Heightened Def Con from 0.000673703 to 0.000673703
Heightened Def Con from 0.000676169 to 0.00067617
Heightened Def Con from 0.000676196 to 0.000676196
Heightened Def Con from 0.000679294 to 0.000679295
Heightened Def Con from 0.000679297 to 0.000679297
Heightened Def Con from 0.000680667 to 0.000680667
Heightened Def Con from 0.000680689 to 0.000680694
Heightened Def Con from 0.000680695 to 0.000680695
Heightened Def Con from 0.000680706 to 0.000680717
Heightened Def Con from 0.000684652 to 0.000684652
Heightened Def Con from 0.000685358 to 0.000685358
Heightened Def Con from 0.000685369 to 0.000685376
Heightened Def Con from 0.000689617 to 0.000689619
Heightened Def Con from 0.00068962 to 0.00068962
Heightened Def Con from 0.000690306 to 0.000690306
Heightened Def Con from 0.000690317 to 0.000690324
Heightened Def Con from 0.000694263 to 0.000694263
Heightened Def Con from 0.000695576 to 0.000695582
Heightened Def Con from 0.000695582 to 0.000695583
Heightened Def Con from 0.000695593 to 0.000695601
Heightened Def Con from 0.000698705 to 0.000698705
Heightened Def Con from 0.000701078 to 0.000701079
Heightened Def Con from 0.000703111 to 0.000703112
Heightened Def Con from 0.000706494 to 0.000706494
Heightened Def Con from 0.000706522 to 0.000706522
Heightened Def Con from 0.000707607 to 0.000707607
Heightened Def Con from 0.000707619 to 0.000707629
Heightened Def Con from 0.000711683 to 0.000711685
Heightened Def Con from 0.000711687 to 0.000711687
Heightened Def Con from 0.000712358 to 0.000712358
Heightened Def Con from 0.000712369 to 0.000712375
Heightened Def Con from 0.000716497 to 0.000716497
Heightened Def Con from 0.00071652 to 0.000716522
Heightened Def Con from 0.000716524 to 0.000716525
Heightened Def Con from 0.000717467 to 0.000717467
Heightened Def Con from 0.000717479 to 0.000717485
Heightened Def Con from 0.000721114 to 0.000721114
Heightened Def Con from 0.000722927 to 0.000722932
Heightened Def Con from 0.000722932 to 0.000722932
Heightened Def Con from 0.000725585 to 0.000725585
Heightened Def Con from 0.000728536 to 0.000728537
Heightened Def Con from 0.000728538 to 0.000728539
Heightened Def Con from 0.000730063 to 0.000730069
Heightened Def Con from 0.00073007 to 0.00073007
Heightened Def Con from 0.000730081 to 0.000730085
Heightened Def Con from 0.000733939 to 0.000733939
Heightened Def Con from 0.000734675 to 0.000734675
Heightened Def Con from 0.000734697 to 0.000734703
Heightened Def Con from 0.000734704 to 0.000734704
Heightened Def Con from 0.000734715 to 0.000734722
Heightened Def Con from 0.000738957 to 0.000738957
Heightened Def Con from 0.000739604 to 0.000739607
Heightened Def Con from 0.000739608 to 0.000739609
Heightened Def Con from 0.000739619 to 0.000739627
Heightened Def Con from 0.00074364 to 0.00074364
Heightened Def Con from 0.000744836 to 0.000744842
Heightened Def Con from 0.000744843 to 0.000744844
Heightened Def Con from 0.000744853 to 0.000744864
Heightened Def Con from 0.000748101 to 0.000748101
Heightened Def Con from 0.000750322 to 0.000750322
Heightened Def Con from 0.000752502 to 0.000752502
Heightened Def Con from 0.000755763 to 0.000755783
Heightened Def Con from 0.000755786 to 0.000755787
Heightened Def Con from 0.000755789 to 0.00075579
Heightened Def Con from 0.000756979 to 0.000756979
Heightened Def Con from 0.00075699 to 0.000756997
Heightened Def Con from 0.000760973 to 0.000760975
Heightened Def Con from 0.000760999 to 0.000760999
Heightened Def Con from 0.000761687 to 0.000761687
Heightened Def Con from 0.000761698 to 0.000761704
Heightened Def Con from 0.000765851 to 0.000765851
Heightened Def Con from 0.000765851 to 0.000765851
Heightened Def Con from 0.000765878 to 0.000765879
Heightened Def Con from 0.000766739 to 0.00076674
Heightened Def Con from 0.000766751 to 0.000766757
Heightened Def Con from 0.000770492 to 0.000770494
Heightened Def Con from 0.000770495 to 0.000770495
Heightened Def Con from 0.00077216 to 0.000772163
Heightened Def Con from 0.000772165 to 0.000772165
Heightened Def Con from 0.000772176 to 0.000772185
Heightened Def Con from 0.000774974 to 0.000774975
Heightened Def Con from 0.000777776 to 0.000777776
Heightened Def Con from 0.000777777 to 0.000777777
Heightened Def Con from 0.000779441 to 0.000779449
Heightened Def Con from 0.00077945 to 0.00077945
Heightened Def Con from 0.000783213 to 0.000783215
Heightened Def Con from 0.000783216 to 0.000783216
Heightened Def Con from 0.000784028 +to 0.000784028
Heightened Def Con from 0.000784028 to 0.000784028
Heightened Def Con from 0.000784049 to 0.000784055
Heightened Def Con from 0.000784055 to 0.000784056
Heightened Def Con from 0.000784066 to 0.000784075
Heightened Def Con from 0.000788292 to 0.000788292
Heightened Def Con from 0.000788889 to 0.000788889
Heightened Def Con from 0.000788915 to 0.000788916
Heightened Def Con from 0.000788926 to 0.000788933
Heightened Def Con from 0.000793012 to 0.000793012
Heightened Def Con from 0.000794078 to 0.000794078
Heightened Def Con from 0.000794097 to 0.000794104
Heightened Def Con from 0.000794105 to 0.000794106
Heightened Def Con from 0.000794116 to 0.000794126
Heightened Def Con from 0.000797493 to 0.000797495
Heightened Def Con from 0.000797496 to 0.000797496
Heightened Def Con from 0.000799566 to 0.000799566
Heightened Def Con from 0.000801897 to 0.000801897
Heightened Def Con from 0.000805053 to 0.000805053
Heightened Def Con from 0.000806355 to 0.000806359
Heightened Def Con from 0.00080636 to 0.00080636
Heightened Def Con from 0.000806372 to 0.000806382
Heightened Def Con from 0.000810306 to 0.000810306
Heightened Def Con from 0.000811024 to 0.000811024
Heightened Def Con from 0.000811035 to 0.000811041
Heightened Def Con from 0.0008152 to 0.00081522
Heightened Def Con from 0.000815224 to 0.000815226
Heightened Def Con from 0.000815227 to 0.000815228
Heightened Def Con from 0.000816026 to 0.000816026
Heightened Def Con from 0.000816038 to 0.000816044
Heightened Def Con from 0.000819874 to 0.000819874
Heightened Def Con from 0.000821398 to 0.000821402
Heightened Def Con from 0.000821403 to 0.000821403
Heightened Def Con from 0.000821414 to 0.000821424
Heightened Def Con from 0.000824364 to 0.000824364
Heightened Def Con from 0.000827012 to 0.000827012
Heightened Def Con from 0.000827013 to 0.000827034
Heightened Def Con from 0.000828832 to 0.000828832
Heightened Def Con from 0.000832492 to 0.000832494
Heightened Def Con from 0.000832495 to 0.000832496
Heightened Def Con from 0.000833386 to 0.000833409
Heightened Def Con from 0.000833411 to 0.000833412
Heightened Def Con from 0.000833422 to 0.00083343
Heightened Def Con from 0.000837621 to 0.000837622
Heightened Def Con from 0.000838227 to 0.00083823
Heightened Def Con from 0.000838232 to 0.000838232
Heightened Def Con from 0.000838242 to 0.000838249
Heightened Def Con from 0.000842377 to 0.000842379
Heightened Def Con from 0.00084238 to 0.00084238
Heightened Def Con from 0.00084335 to 0.000843373
Heightened Def Con from 0.000843376 to 0.000843376
Heightened Def Con from 0.000843387 to 0.000843396
Heightened Def Con from 0.000846887 to 0.000846889
Heightened Def Con from 0.00084689 to 0.00084689
Heightened Def Con from 0.000848781 to 0.000848781
Heightened Def Con from 0.000848782 to 0.000848806
Heightened Def Con from 0.000848807 to 0.000848808
Heightened Def Con from 0.000851292 to 0.000851292
Heightened Def Con from 0.000854309 to 0.000854309
Heightened Def Con from 0.000855733 to 0.000855737
Heightened Def Con from 0.000855739 to 0.000855739
Heightened Def Con from 0.00085575 to 0.000855759
Heightened Def Con from 0.000859604 to 0.000859605
Heightened Def Con from 0.000860367 to 0.000860367
Heightened Def Con from 0.000860378 to 0.000860384
Heightened Def Con from 0.000864572 to 0.000864572
Heightened Def Con from 0.000865316 to 0.000865316
Heightened Def Con from 0.000865328 to 0.000865334
Heightened Def Con from 0.000869223 to 0.000869223
Heightened Def Con from 0.000869249 to 0.000869249
Heightened Def Con from 0.000870649 to 0.000870649
Heightened Def Con from 0.000870661 to 0.000870671
Heightened Def Con from 0.000873724 to 0.000873724
Heightened Def Con from 0.000873726 to 0.00087375
Heightened Def Con from 0.000873752 to 0.000873752
Heightened Def Con from 0.000876239 to 0.000876239
Heightened Def Con from 0.000876242 to 0.000876261
Heightened Def Con from 0.000878216 to 0.000878217
Heightened Def Con from 0.000881751 to 0.000881753
Heightened Def Con from 0.000881754 to 0.000881754
Heightened Def Con from 0.000882768 to 0.000882771
Heightened Def Con from 0.000882773 to 0.000882773
Heightened Def Con from 0.000882783 to 0.000882794
Heightened Def Con from 0.000886937 to 0.000886939
Heightened Def Con from 0.00088694 to 0.00088694
Heightened Def Con from 0.000887525 to 0.000887525
Heightened Def Con from 0.000887548 to 0.000887551
Heightened Def Con from 0.000887552 to 0.000887553
Heightened Def Con from 0.000887563 to 0.00088757
Heightened Def Con from 0.000891749 to 0.00089175
Heightened Def Con from 0.00089265 to 0.000892651
Heightened Def Con from 0.000892661 to 0.000892668
Heightened Def Con from 0.00089628 to 0.00089628
Heightened Def Con from 0.000898046 to 0.000898052
Heightened Def Con from 0.000898053 to 0.000898053
Heightened Def Con from 0.000898063 to 0.000898065
Heightened Def Con from 0.000900688 to 0.000900689
Heightened Def Con from 0.00090069 to 0.000900691
Heightened Def Con from 0.000903559 to 0.000903561
Heightened Def Con from 0.000903562 to 0.000903563
Heightened Def Con from 0.000905116 to 0.000905121
Heightened Def Con from 0.000905122 to 0.000905122
Heightened Def Con from 0.000908894 to 0.000908896
Heightened Def Con from 0.000908898 to 0.000908898
Heightened Def Con from 0.000909714 to 0.000909714
Heightened Def Con from 0.000909726 to 0.000909732
Heightened Def Con from 0.000913883 to 0.000913883
Heightened Def Con from 0.00091391 to 0.00091391
Heightened Def Con from 0.000914611 to 0.000914612
Heightened Def Con from 0.000914623 to 0.000914629
Heightened Def Con from 0.000918621 to 0.000918621
Heightened Def Con from 0.000919893 to 0.000919893
Heightened Def Con from 0.000919905 to 0.000919915
Heightened Def Con from 0.000923114 to 0.000923114
Heightened Def Con from 0.000923136 to 0.00092314
Heightened Def Con from 0.000923142 to 0.000923142
Heightened Def Con from 0.000925468 to 0.000925469
Heightened Def Con from 0.000927602 to 0.000927602
Heightened Def Con from 0.000927605 to 0.000927624
Heightened Def Con from 0.000931012 to 0.000931014
Heightened Def Con from 0.000931015 to 0.000931015
Heightened Def Con from 0.00093213 to 0.000932135
Heightened Def Con from 0.000932137 to 0.000932137
Heightened Def Con from 0.000932148 to 0.000932159
Heightened Def Con from 0.000936253 to 0.000936255
Heightened Def Con from 0.000936256 to 0.000936256
Heightened Def Con from 0.000936853 to 0.000936853
Heightened Def Con from 0.000936875 to 0.000936878
Heightened Def Con from 0.00093688 to 0.00093688
Heightened Def Con from 0.000936891 to 0.000936898
Heightened Def Con from 0.000941099 to 0.000941101
Heightened Def Con from 0.000941102 to 0.000941102
Heightened Def Con from 0.000941928 to 0.000941931
Heightened Def Con from 0.000941932 to 0.000941932
Heightened Def Con from 0.000941943 to 0.00094195
Heightened Def Con from 0.000945668 to 0.00094567
Heightened Def Con from 0.000945671 to 0.000945671
Heightened Def Con from 0.0009473 to 0.0009473
Heightened Def Con from 0.000947311 to 0.000947322
Heightened Def Con from 0.00095281 to 0.000952811
Heightened Def Con from 0.000952812 to 0.000952812
Heightened Def Con from 0.000954501 to 0.000954506
Heightened Def Con from 0.000954508 to 0.000954508
Heightened Def Con from 0.000958185 to 0.000958185
Heightened Def Con from 0.000959066 to 0.000959066
Heightened Def Con from 0.000959077 to 0.000959083
Heightened Def Con from 0.000963238 to 0.00096324
Heightened Def Con from 0.000963242 to 0.000963242
Heightened Def Con from 0.000963916 to 0.000963916
Heightened Def Con from 0.000963927 to 0.000963933
Heightened Def Con from 0.000967989 to 0.000967989
Heightened Def Con from 0.000969152 to 0.000969152
Heightened Def Con from 0.000969164 to 0.00096917
Heightened Def Con from 0.000972501 to 0.000972501
Heightened Def Con from 0.000972523 to 0.000972526
Heightened Def Con from 0.000972528 to 0.000972528
Heightened Def Con from 0.000974699 to 0.000974699
Heightened Def Con from 0.000976989 to 0.000976989
Heightened Def Con from 0.000976989 to 0.00097701
Heightened Def Con from 0.000980267 to 0.000980267
Heightened Def Con from 0.0009815 to 0.000981506
Heightened Def Con from 0.000981507 to 0.000981507
Heightened Def Con from 0.000981517 to 0.000981528
Heightened Def Con from 0.000985555 to 0.000985555
Heightened Def Con from 0.000986212 to 0.000986213
Heightened Def Con from 0.000986223 to 0.000986231
Heightened Def Con from 0.000990461 to 0.000990461
Heightened Def Con from 0.000991218 to 0.000991218
Heightened Def Con from 0.000991229 to 0.000991237
Heightened Def Con from 0.000995053 to 0.000995054
Heightened Def Con from 0.000996542 to 0.000996548
Heightened Def Con from 0.000996549 to 0.000996549
Heightened Def Con from 0.00099656 to 0.000996571
Heightened Def Con from 0.000999479 to 0.000999481
Heightened Def Con from 0.000999482 to 0.000999482
Heightened Def Con from 0.00100203 to 0.00100205
Heightened Def Con from 0.00100206 to 0.00100206
Heightened Def Con from 0.00100206 to 0.00100208
Heightened Def Con from 0.0010039 to 0.0010039
Heightened Def Con from 0.00100744 to 0.00100744
Heightened Def Con from 0.00100746 to 0.00100746
Heightened Def Con from 0.00100843 to 0.00100843
Heightened Def Con from 0.00100844 to 0.00100845
Heightened Def Con from 0.00101254 to 0.00101254
Heightened Def Con from 0.00101257 to 0.00101257
Heightened Def Con from 0.00101323 to 0.00101323
Heightened Def Con from 0.00101324 to 0.00101325
Heightened Def Con from 0.00101733 to 0.00101733
Heightened Def Con from 0.00101735 to 0.00101735
Heightened Def Con from 0.00101735 to 0.00101735
Heightened Def Con from 0.00101841 to 0.00101841
Heightened Def Con from 0.00101842 to 0.00101842
Heightened Def Con from 0.00102191 to 0.00102191
Heightened Def Con from 0.00102191 to 0.00102191
Heightened Def Con from 0.00102393 to 0.00102393
Heightened Def Con from 0.00102635 to 0.00102635
Heightened Def Con from 0.00102638 to 0.00102638
Heightened Def Con from 0.00102638 to 0.00102638
Heightened Def Con from 0.00102952 to 0.00102952
Heightened Def Con from 0.00103085 ++++to 0.00103085
Heightened Def Con from 0.00103085 to 0.00103085
Heightened Def Con from 0.00103088 to 0.00103088
Heightened Def Con from 0.00103089 to 0.00103089
Heightened Def Con from 0.00103485 to 0.00103486
Heightened Def Con from 0.00103552 to 0.00103552
Heightened Def Con from 0.00103552 to 0.00103555
Heightened Def Con from 0.00103555 to 0.00103555
Heightened Def Con from 0.00103556 to 0.00103557
Heightened Def Con from 0.0010398 to 0.0010398
Heightened Def Con from 0.00104048 to 0.00104048
Heightened Def Con from 0.00104049 to 0.00104049
Heightened Def Con from 0.00104051 to 0.00104051
Heightened Def Con from 0.00104052 to 0.00104053
Heightened Def Con from 0.00104444 to 0.00104444
Heightened Def Con from 0.0010458 to 0.0010458
Heightened Def Con from 0.0010458 to 0.0010458
Heightened Def Con from 0.00104581 to 0.00104582
Heightened Def Con from 0.00104888 to 0.00104888
Heightened Def Con from 0.00104888 to 0.00104888
Heightened Def Con from 0.0010513 to 0.0010513
Heightened Def Con from 0.00105328 to 0.00105328
Heightened Def Con from 0.00105671 to 0.00105674
Heightened Def Con from 0.00105674 to 0.00105674
Heightened Def Con from 0.0010578 to 0.0010578
Heightened Def Con from 0.00105781 to 0.00105782
Heightened Def Con from 0.00106186 to 0.00106186
Heightened Def Con from 0.00106189 to 0.00106189
Heightened Def Con from 0.00106255 to 0.00106255
Heightened Def Con from 0.00106256 to 0.00106257
Heightened Def Con from 0.00106671 to 0.00106671
Heightened Def Con from 0.00106768 to 0.00106768
Heightened Def Con from 0.00106769 to 0.00106769
Heightened Def Con from 0.0010713 to 0.0010713
Heightened Def Con from 0.00107315 to 0.00107315
Heightened Def Con from 0.00107315 to 0.00107315
Heightened Def Con from 0.00107574 to 0.00107574
Heightened Def Con from 0.00107577 to 0.00107577
Heightened Def Con from 0.00107876 to 0.00107876
Heightened Def Con from 0.00108023 to 0.00108023
Heightened Def Con from 0.00108025 to 0.00108025
Heightened Def Con from 0.00108026 to 0.00108027
Heightened Def Con from 0.00108415 to 0.00108415
Heightened Def Con from 0.00108489 to 0.0010849
Heightened Def Con from 0.0010849 to 0.0010849
Heightened Def Con from 0.00108491 to 0.00108492
Heightened Def Con from 0.00108915 to 0.00108915
Heightened Def Con from 0.00108981 to 0.00108981
Heightened Def Con from 0.00108982 to 0.00108983
Heightened Def Con from 0.00109382 to 0.00109382
Heightened Def Con from 0.00109506 to 0.00109506
Heightened Def Con from 0.00109506 to 0.00109506
Heightened Def Con from 0.00109507 to 0.00109508
Heightened Def Con from 0.00109827 to 0.00109828
Heightened Def Con from 0.00109828 to 0.00109828
Heightened Def Con from 0.00110052 to 0.00110052
Heightened Def Con from 0.00110052 +++to 0.00110052
Heightened Def Con from 0.00110052 to 0.00110052
Heightened Def Con from 0.00110052 to 0.00110052
Heightened Def Con from 0.00110055 to 0.00110055
Heightened Def Con from 0.00110268 to 0.00110268
Heightened Def Con from 0.00110598 to 0.00110598
Heightened Def Con from 0.00110601 to 0.00110601
Heightened Def Con from 0.00110716 to 0.00110716
Heightened Def Con from 0.00110717 to 0.00110718
Heightened Def Con from 0.0011112 to 0.0011112
Heightened Def Con from 0.0011112 to 0.0011112
Heightened Def Con from 0.00111188 to 0.00111188
Heightened Def Con from 0.00111189 to 0.0011119
Heightened Def Con from 0.00111604 to 0.00111606
Heightened Def Con from 0.00111607 to 0.00111607
Heightened Def Con from 0.00111607 to 0.00111607
Heightened Def Con from 0.00111695 to 0.00111695
Heightened Def Con from 0.00111696 to 0.00111697
Heightened Def Con from 0.00112065 to 0.00112065
Heightened Def Con from 0.00112067 to 0.00112068
Heightened Def Con from 0.00112068 to 0.00112068
Heightened Def Con from 0.00112239 to 0.00112239
Heightened Def Con from 0.00112239 to 0.00112239
Heightened Def Con from 0.0011224 to 0.0011224
Heightened Def Con from 0.00112513 to 0.00112513
Heightened Def Con from 0.00112513 to 0.00112513
Heightened Def Con from 0.00112515 to 0.00112515
Heightened Def Con from 0.00112515 to 0.00112516
Heightened Def Con from 0.00112799 to 0.00112799
Heightened Def Con from 0.00112961 to 0.00112963
Heightened Def Con from 0.00112963 to 0.00112963
Heightened Def Con from 0.00113343 to 0.00113343
Heightened Def Con from 0.00113422 to 0.00113422
Heightened Def Con from 0.00113424 to 0.00113425
Heightened Def Con from 0.00113425 to 0.00113425
Heightened Def Con from 0.00113426 to 0.00113427
Heightened Def Con from 0.00113848 to 0.00113848
Heightened Def Con from 0.00113909 to 0.00113912
Heightened Def Con from 0.00113912 to 0.00113912
Heightened Def Con from 0.00113913 to 0.00113914
Heightened Def Con from 0.00114319 to 0.00114319
Heightened Def Con from 0.00114319 to 0.00114319
Heightened Def Con from 0.00114432 to 0.00114432
Heightened Def Con from 0.00114432 to 0.00114432
Heightened Def Con from 0.00114433 to 0.00114434
Heightened Def Con from 0.00114768 to 0.00114768
Heightened Def Con from 0.00114976 to 0.00114976
Heightened Def Con from 0.00114979 to 0.00114979
Heightened Def Con from 0.00115207 to 0.00115207
Heightened Def Con from 0.00115207 to 0.00115209
Heightened Def Con from 0.00115524 to 0.00115524
Heightened Def Con from 0.00115527 to 0.00115527
Heightened Def Con from 0.00115654 to 0.00115654
Heightened Def Con from 0.00115655 to 0.00115656
Heightened Def Con from 0.00116048 to 0.00116051
Heightened Def Con from 0.00116051 to 0.00116051
Heightened Def Con from 0.00116121 to 0.00116121
Heightened Def Con from 0.00116122 to 0.00116123
Heightened Def Con from 0.00116542 to 0.00116542
Heightened Def Con from 0.00116542 to 0.00116542
Heightened Def Con from 0.00116623 to 0.00116623
Heightened Def Con from 0.00116624 to 0.00116625
Heightened Def Con from 0.00117006 to 0.00117006
Heightened Def Con from 0.00117162 to 0.00117163
Heightened Def Con from 0.00117163 to 0.00117163
Heightened Def Con from 0.00117164 to 0.00117164
Heightened Def Con from 0.00117454 to 0.00117454
Heightened Def Con from 0.00117454 to 0.00117454
Heightened Def Con from 0.00117723 to 0.00117723
Heightened Def Con from 0.00117901 to 0.00117901
Heightened Def Con from 0.0011827 to 0.0011827
Heightened Def Con from 0.00118359 to 0.0011836
Heightened Def Con from 0.0011836 to 0.0011836
Heightened Def Con from 0.00118361 to 0.00118362
Heightened Def Con from 0.00118781 to 0.00118781
Heightened Def Con from 0.00118782 to 0.00118782
Heightened Def Con from 0.0011884 to 0.0011884
Heightened Def Con from 0.00118843 to 0.00118843
Heightened Def Con from 0.00118843 to 0.00118843
Heightened Def Con from 0.00118844 to 0.00118845
Heightened Def Con from 0.00119256 to 0.00119256
Heightened Def Con from 0.00119257 to 0.00119257
Heightened Def Con from 0.00119359 to 0.00119359
Heightened Def Con from 0.0011936 to 0.00119361
Heightened Def Con from 0.00119707 to 0.00119707
Heightened Def Con from 0.001199 to 0.001199
Heightened Def Con from 0.00119903 to 0.00119903
Heightened Def Con from 0.00120147 to 0.00120147
Heightened Def Con from 0.00120453 to 0.00120453
Heightened Def Con from 0.00120591 to 0.00120592
Heightened Def Con from 0.00120592 to 0.00120592
Heightened Def Con from 0.00120593 to 0.00120594
Heightened Def Con from 0.00120978 to 0.00120978
Heightened Def Con from 0.00120978 to 0.0012098
Heightened Def Con from 0.00120981 to 0.00120981
Heightened Def Con from 0.00121055 to 0.00121056
Heightened Def Con from 0.00121057 to 0.00121057
Heightened Def Con from 0.00121474 to 0.00121476
Heightened Def Con from 0.00121552 to 0.00121552
Heightened Def Con from 0.00121553 to 0.00121554
Heightened Def Con from 0.0012194 to 0.0012194
Heightened Def Con from 0.00121943 to 0.00121943
Heightened Def Con from 0.00122087 to 0.00122087
Heightened Def Con from 0.00122088 to 0.00122089
Heightened Def Con from 0.00122391 to 0.00122391
Heightened Def Con from 0.00122393 to 0.00122393
Heightened Def Con from 0.00122393 to 0.00122393
Heightened Def Con from 0.00122646 to 0.00122646
Heightened Def Con from 0.00122837 to 0.00122837
Heightened Def Con from 0.0012284 to 0.0012284
Heightened Def Con from 0.00123197 to 0.00123197
Heightened Def Con from 0.00123197 to 0.00123197
Heightened Def Con from 0.00123293 to 0.00123293
Heightened Def Con from 0.00123293 to 0.00123293
Heightened Def Con from 0.00123295 to 0.00123296
Heightened Def Con from 0.00123296 to 0.00123296
Heightened Def Con from 0.00123297 to 0.00123298
Heightened Def Con from 0.00123713 to 0.00123713
Heightened Def Con from 0.00123775 to 0.00123777
Heightened Def Con from 0.00124193 to 0.00124193
Heightened Def Con from 0.00124286 to 0.00124286
Heightened Def Con from 0.00124287 to 0.00124288
Heightened Def Con from 0.00124646 to 0.00124646
Heightened Def Con from 0.00124827 to 0.00124827
Heightened Def Con from 0.00124827 to 0.00124827
Heightened Def Con from 0.00125087 to 0.00125087
Heightened Def Con from 0.00125087 to 0.00125087
Heightened Def Con from 0.00125378 to 0.00125378
Heightened Def Con from 0.00125378 to 0.00125378
Heightened Def Con from 0.0012553 to 0.0012553
Heightened Def Con from 0.00125531 to 0.00125532
Heightened Def Con from 0.0012591 to 0.0012591
Heightened Def Con from 0.0012591 to 0.0012591
Heightened Def Con from 0.0012599 to 0.0012599
Heightened Def Con from 0.00125991 to 0.00125992
Heightened Def Con from 0.00126408 to 0.00126408
Heightened Def Con from 0.00126408 to 0.00126408
Heightened Def Con from 0.0012641 to 0.0012641
Heightened Def Con from 0.0012641 to 0.0012641
Heightened Def Con from 0.00126481 to 0.00126481
Heightened Def Con from 0.00126482 to 0.00126483
Heightened Def Con from 0.00126878 to 0.00126878
Heightened Def Con from 0.00126878 to 0.00126878
Heightened Def Con from 0.0012688 to 0.0012688
Heightened Def Con from 0.0012688 to 0.0012688
Heightened Def Con from 0.00127011 to 0.00127011
Heightened Def Con from 0.00127012 to 0.00127013
Heightened Def Con from 0.00127332 to 0.00127332
Heightened Def Con from 0.00127569 to 0.00127569
Heightened Def Con from 0.00127778 to 0.00127778
Heightened Def Con from 0.00128123 to 0.00128123
Heightened Def Con from 0.00128232 to 0.00128232
Heightened Def Con from 0.00128232 to 0.00128232
Heightened Def Con from 0.00128233 to 0.00128234
Heightened Def Con from 0.00128645 to 0.00128645
Heightened Def Con from 0.00128645 to 0.00128645
Heightened Def Con from 0.00128707 to 0.00128708
Heightened Def Con from 0.00128708 to 0.00128708
Heightened Def Con from 0.00128709 to 0.00128709
Heightened Def Con from 0.00129129 to 0.00129129
Heightened Def Con from 0.00129211 to 0.00129211
Heightened Def Con from 0.00129214 to 0.00129214
Heightened Def Con from 0.00129215 to 0.00129216
Heightened Def Con from 0.00129585 to 0.00129585
Heightened Def Con from 0.00129749 to 0.00129749
Heightened Def Con from 0.00129749 to 0.00129752
Heightened Def Con from 0.00129752 to 0.00129752
Heightened Def Con from 0.00129753 to 0.00129754
Heightened Def Con from 0.00130026 to 0.00130026
Heightened Def Con from 0.00130026 to 0.00130026
Heightened Def Con from 0.00130303 to 0.00130303
Heightened Def Con from 0.00130303 to 0.00130303
Heightened Def Con from 0.00130469 to 0.00130469
Heightened Def Con from 0.00130839 to 0.00130839
Heightened Def Con from 0.00130839 to 0.00130839
Heightened Def Con from 0.00130926 to 0.00130926
Heightened Def Con from 0.00130927 to 0.00130927
Heightened Def Con from 0.00131341 to 0.00131341
Heightened Def Con from 0.00131343 to 0.00131344
Heightened Def Con from 0.00131344 to 0.00131344
Heightened Def Con from 0.00131412 to 0.00131412
Heightened Def Con from 0.00131413 to 0.00131414
Heightened Def Con from 0.00131817 to 0.00131817
Heightened Def Con from 0.00131818 to 0.00131818
Heightened Def Con from 0.00131936 to 0.00131936
Heightened Def Con from 0.00131937 to 0.00131938
Heightened Def Con from 0.00132271 to 0.00132271
Heightened Def Con from 0.00132271 to 0.00132271
Heightened Def Con from 0.00132492 to 0.00132492
Heightened Def Con from 0.00132714 to 0.00132714
Heightened Def Con from 0.00132717 to 0.00132717
Heightened Def Con from 0.00132717 to 0.00132719
Heightened Def Con from 0.00133049 to 0.00133049
Heightened Def Con from 0.00133168 to 0.00133169
Heightened Def Con from 0.00133169 to 0.00133169
Heightened Def Con from 0.0013317 to 0.00133171
Heightened Def Con from 0.00133576 to 0.00133576
Heightened Def Con from 0.00133641 to 0.00133641
Heightened Def Con from 0.00133642 to 0.00133643
Heightened Def Con from 0.00134065 to 0.00134065
Heightened Def Con from 0.00134143 to 0.00134143
Heightened Def Con from 0.00134144 to 0.00134145
Heightened Def Con from 0.00134523 to 0.00134524
Heightened Def Con from 0.00134524 to 0.00134524
Heightened Def Con from 0.00134674 to 0.00134677
Heightened Def Con from 0.00134677 to 0.00134677
Heightened Def Con from 0.00134678 to 0.00134679
Heightened Def Con from 0.00134966 to 0.00134966
Heightened Def Con from 0.00134966 to 0.00134966
Heightened Def Con from 0.00135228 to 0.00135228
Heightened Def Con from 0.00135228 to 0.00135228
Heightened Def Con from 0.00135407 to 0.00135407
Heightened Def Con from 0.00135767 to 0.00135768
Heightened Def Con from 0.00135768 to 0.00135768
Heightened Def Con from 0.00135862 to 0.00135862
Heightened Def Con from 0.00135863 to 0.00135863
Heightened Def Con from 0.00136274 to 0.00136274
Heightened Def Con from 0.00136274 to 0.00136274
Heightened Def Con from 0.00136276 to 0.00136277
Heightened Def Con from 0.00136277 to 0.00136277
Heightened Def Con from 0.00136343 to 0.00136343
Heightened Def Con from 0.00136344 to 0.00136345
Heightened Def Con from 0.00136754 to 0.00136754
Heightened Def Con from 0.00136754 to 0.00136754
Heightened Def Con from 0.00136863 to 0.00136863
Heightened Def Con from 0.00136864 to 0.00136864
Heightened Def Con from 0.00137209 to 0.00137209
Heightened Def Con from 0.00137415 to 0.00137415
Heightened Def Con from 0.00137653 to 0.00137653
Heightened Def Con from 0.00137656 to 0.00137656
Heightened Def Con from 0.00137974 to 0.00137974
Heightened Def Con from 0.00138104 to 0.00138104
Heightened Def Con from 0.00138106 to 0.00138106
Heightened Def Con from 0.00138106 to 0.00138106
Heightened Def Con from 0.00138107 to 0.00138108
Heightened Def Con from 0.00138506 to 0.00138506
Heightened Def Con from 0.00138572 to 0.00138572
Heightened Def Con from 0.00138574 to 0.00138574
Heightened Def Con from 0.00138575 to 0.00138575
Heightened Def Con from 0.00138576 to 0.00138576
Heightened Def Con from 0.00138999 to 0.00139
Heightened Def Con from 0.00139 to 0.00139
Heightened Def Con from 0.00139069 to 0.00139069
Heightened Def Con from 0.00139071 to 0.00139072
Heightened Def Con from 0.00139072 to 0.00139072
Heightened Def Con from 0.00139073 to 0.00139074
Heightened Def Con from 0.00139462 to 0.00139462
Heightened Def Con from 0.00139462 to 0.00139462
Heightened Def Con from 0.00139601 to 0.00139602
Heightened Def Con from 0.00139602 to 0.00139602
Heightened Def Con from 0.00139603 to 0.00139604
Heightened Def Con from 0.00139906 to 0.00139906
Heightened Def Con from 0.0014015 to 0.0014015
Heightened Def Con from 0.00140152 to 0.00140152
Heightened Def Con from 0.00140153 to 0.00140155
Heightened Def Con from 0.00140346 to 0.00140346
Heightened Def Con from 0.00140693 to 0.00140693
Heightened Def Con from 0.00140695 to 0.00140695
Heightened Def Con from 0.00140798 to 0.00140798
Heightened Def Con from 0.00140799 to 0.001408
Heightened Def Con from 0.00141209 to 0.00141209
Heightened Def Con from 0.00141209 to 0.00141209
Heightened Def Con from 0.00141275 to 0.00141275
Heightened Def Con from 0.00141276 to 0.00141277
Heightened Def Con from 0.0014169 to 0.0014169
Heightened Def Con from 0.00141788 to 0.00141788
Heightened Def Con from 0.0014179 to 0.0014179
Heightened Def Con from 0.00142148 to 0.00142148
Heightened Def Con from 0.00142338 to 0.00142338
Heightened Def Con from 0.00142594 to 0.00142595
Heightened Def Con from 0.00142898 to 0.00142898
Heightened Def Con from 0.00143041 to 0.00143041
Heightened Def Con from 0.00143043 to 0.00143044
Heightened Def Con from 0.00143044 to 0.00143044
Heightened Def Con from 0.00143045 to 0.00143046
Heightened Def Con from 0.00143435 to 0.00143435
Heightened Def Con from 0.00143508 to 0.00143509
Heightened Def Con from 0.00143509 to 0.00143509
Heightened Def Con from 0.0014351 to 0.00143511
Heightened Def Con from 0.00143934 to 0.00143934
Heightened Def Con from 0.00143999 to 0.00143999
Heightened Def Con from 0.00144002 to 0.00144002
Heightened Def Con from 0.00144003 to 0.00144003
Heightened Def Con from 0.00144399 to 0.00144399
Heightened Def Con from 0.00144525 to 0.00144525
Heightened Def Con from 0.00144527 to 0.00144528
Heightened Def Con from 0.00144528 to 0.00144528
Heightened Def Con from 0.00144529 to 0.0014453
Heightened Def Con from 0.00144845 to 0.00144845
Heightened Def Con from 0.00145074 to 0.00145074
Heightened Def Con from 0.00145074 to 0.00145074
Heightened Def Con from 0.00145077 to 0.00145077
Heightened Def Con from 0.00145077 to 0.00145079
Heightened Def Con from 0.00145285 to 0.00145285
Heightened Def Con from 0.00145622 to 0.00145622
Heightened Def Con from 0.00145734 to 0.00145734
Heightened Def Con from 0.00145735 to 0.00145736
Heightened Def Con from 0.00146138 to 0.0014614
Heightened Def Con from 0.0014614 to 0.0014614
Heightened Def Con from 0.00146207 to 0.00146207
Heightened Def Con from 0.00146208 to 0.00146209
Heightened Def Con from 0.00146623 to 0.00146623
Heightened Def Con from 0.00146626 to 0.00146626
Heightened Def Con from 0.00146626 to 0.00146626
Heightened Def Con from 0.00146716 to 0.00146716
Heightened Def Con from 0.00146717 to 0.00146718
Heightened Def Con from 0.00147083 to 0.00147083
Heightened Def Con from 0.00147086 to 0.00147086
Heightened Def Con from 0.00147086 to 0.00147086
Heightened Def Con from 0.00147261 to 0.00147261
Heightened Def Con from 0.00147261 to 0.00147261
Heightened Def Con from 0.00147262 to 0.00147263
Heightened Def Con from 0.00147531 to 0.00147531
Heightened Def Con from 0.00147533 to 0.00147533
Heightened Def Con from 0.00147533 to 0.00147533
Heightened Def Con from 0.00147822 to 0.00147822
Heightened Def Con from 0.00147822 to 0.00147822
Heightened Def Con from 0.00147981 to 0.00147981
Heightened Def Con from 0.00147981 to 0.00147981
Heightened Def Con from 0.00148363 to 0.00148364
Heightened Def Con from 0.00148441 to 0.00148441
Heightened Def Con from 0.00148443 to 0.00148444
Heightened Def Con from 0.00148444 to 0.00148444
Heightened Def Con from 0.00148445 to 0.00148445
Heightened Def Con from 0.00148868 to 0.00148868
Heightened Def Con from 0.00148932 to 0.00148932
Heightened Def Con from 0.00148932 to 0.00148932
Heightened Def Con from 0.00148933 to 0.00148934
Heightened Def Con from 0.00149337 to 0.00149337
Heightened Def Con from 0.00149453 to 0.00149454
Heightened Def Con from 0.00149454 to 0.00149454
Heightened Def Con from 0.00149455 to 0.00149456
Heightened Def Con from 0.00149785 to 0.00149785
N-Period=all
Fourier components of V(vo)
DC component:-0.299779

Harmonic	Frequency	 Fourier 	Normalized	 Phase  	Normalized
 Number 	  [Hz]   	Component	 Component	[degree]	Phase [deg]
    1   	 2.000e+4	 2.227e+1	 1.000e+0	  -32.58°	    0.00°
    2   	 4.000e+4	 1.044e-2	 4.688e-4	 -113.01°	  -80.43°
    3   	 6.000e+4	 4.369e-2	 1.962e-3	    4.88°	   37.46°
Total Harmonic Distortion: 0.201684%(7.360993%)



Date: Mon Mar 23 19:12:25 2020
Total elapsed time: 197.060 seconds.

tnom = 27
temp = 27
method = modified trap
totiter = 3592518
traniter = 3592518
tranpoints = 1103529
accept = 821752
rejected = 282602
matrix size = 370
fillins = 554
solver = Alternate
Thread vector: 51.4/27.6[5] 11.4/7.2[5] 8.2/3.2[5] 3.2/3.1[2]  2592/500
Matrix Compiler1: 64.19 KB object code size  10.3/6.4/[3.9]
Matrix Compiler2: 42.52 KB object code size  4.4/4.9/[2.4]

