Circuit: * C:\Users\Ema\Desktop\DCE\DISTORSION\Distorsion_1k.asc

Questionable use of curly braces in "b§e_abmgate yint 0 v={if(v(a)>{{vthresh}},{{vss}},{{vdd}})}"
    Error: undefined symbol in: "if([v](a)>((vthresh)),((vss)),((vdd)))"
Questionable use of curly braces in "b§e_abmgate yint 0 v={if(v(a)>{{vthresh}}&v(b)>{{vthresh}},{{vdd}},{{vss}})}"
    Error: undefined symbol in: "if([v](a)>((vthresh))&v(b)>((vthresh)),((vdd)),((vss)))"
Questionable use of curly braces in "b§e_abmgate yint 0 v={if(v(a)>{{vthresh}}&v(b)>{{vthresh}},{{vdd}},{{vss}})}"
    Error: undefined symbol in: "if([v](a)>((vthresh))&v(b)>((vthresh)),((vdd)),((vss)))"
Questionable use of curly braces in "b§e_abmgate yint 0 v={if(v(a)>{{vthresh}},{{vss}},{{vdd}})}"
    Error: undefined symbol in: "if([v](a)>((vthresh)),((vss)),((vdd)))"
Questionable use of curly braces in "b§e_abmgate yint 0 v={if(v(a)>{{vthresh}}&v(b)>{{vthresh}},{{vdd}},{{vss}})}"
    Error: undefined symbol in: "if([v](a)>((vthresh))&v(b)>((vthresh)),((vdd)),((vss)))"
Questionable use of curly braces in "b§e_abmgate yint 0 v={if(v(a)>{{vthresh}},{{vss}},{{vdd}})}"
    Error: undefined symbol in: "if([v](a)>((vthresh)),((vss)),((vdd)))"
WARNING: Less than two connections to node NC_03.  This node is used by V:U4:_V11.
WARNING: Less than two connections to node NC_02.  This node is used by V:U4:_V12.
WARNING: Less than two connections to node NC_01.  This node is used by V:U4:_V13.
WARNING: Less than two connections to node NC_04.  This node is used by V:U4:_V14.
WARNING: Less than two connections to node -15V.  This node is used by V6.
Instance "m:u4:_m12:1": Length shorter than recommended for a level 1 MOSFET.
Instance "m:u4:_m14:1": Length shorter than recommended for a level 1 MOSFET.
Instance "m:u4:_m15:1": Length shorter than recommended for a level 1 MOSFET.
Instance "m:u4:_m13:1": Length shorter than recommended for a level 1 MOSFET.
Instance "m:m2:2": Length shorter than recommended for a level 3 MOSFET.
Instance "m:m2:1": Length shorter than recommended for a level 3 MOSFET.
Instance "m:m1:2": Length shorter than recommended for a level 3 MOSFET.
Instance "m:m1:1": Length shorter than recommended for a level 3 MOSFET.
Per .tran options, skipping operating point for transient analysis.
Ignoring empty pin current: Ix(u4:vcci_1)
Changing Tseed to 4.88281e-010
Changing Tseed to 4.88281e-012
Changing Tseed to 4.88281e-009
Changing Tseed to 4.88281e-013
Changing Tseed to 4.88281e-008
Changing Tseed to 4.88281e-014
Changing Tseed to 4.88281e-007
Changing Tseed to 4.88281e-015
Changing Tseed to 4.88281e-006
Changing Tseed to 4.88281e-016
Changing Tseed to 4.88281e-005
Changing Tseed to 4.88281e-017
Heightened Def Con from 0 Changing Tseed to 1e-009
Changing Tseed to 1e-011
Changing Tseed to 1e-008
Changing Tseed to 1e-012
Changing Tseed to 1e-007
Changing Tseed to 1e-013
Changing Tseed to 1e-006
Changing Tseed to 1e-014
Changing Tseed to 1e-005
Changing Tseed to 1e-015
Changing Tseed to 0.0001
Changing Tseed to 1e-016
+Changing Tseed to 1e-009
Changing Tseed to 1e-011
Changing Tseed to 1e-008
Changing Tseed to 1e-012
Changing Tseed to 1e-007
Changing Tseed to 1e-013
Changing Tseed to 1e-006
Changing Tseed to 1e-014
Changing Tseed to 1e-005
Changing Tseed to 1e-015
Changing Tseed to 0.0001
Changing Tseed to 1e-016
+Changing Tseed to 1e-009
Changing Tseed to 1e-011
Changing Tseed to 1e-008
Changing Tseed to 1e-012
Changing Tseed to 1e-007
Changing Tseed to 1e-013
Changing Tseed to 1e-006
Changing Tseed to 1e-014
Changing Tseed to 1e-005
Changing Tseed to 1e-015
Changing Tseed to 0.0001
Changing Tseed to 1e-016
+Changing Tseed to 1e-009
Changing Tseed to 1e-011
Changing Tseed to 1e-008
Changing Tseed to 1e-012
Changing Tseed to 1e-007
Changing Tseed to 1e-013
Changing Tseed to 1e-006
Changing Tseed to 1e-014
Changing Tseed to 1e-005
Changing Tseed to 1e-015
Changing Tseed to 0.0001
Changing Tseed to 1e-016
+Changing Tseed to 1e-009
Changing Tseed to 1e-011
Changing Tseed to 1e-008
Changing Tseed to 1e-012
Changing Tseed to 1e-007
Changing Tseed to 1e-013
Changing Tseed to 1e-006
Changing Tseed to 1e-014
Changing Tseed to 1e-005
Changing Tseed to 1e-015
Changing Tseed to 0.0001
Changing Tseed to 1e-016
+Changing Tseed to 1e-009
Changing Tseed to 1e-011
Changing Tseed to 1e-008
Changing Tseed to 1e-012
Changing Tseed to 1e-007
Changing Tseed to 1e-013
Changing Tseed to 1e-006
Changing Tseed to 1e-014
Changing Tseed to 1e-005
Changing Tseed to 1e-015
Changing Tseed to 0.0001
Changing Tseed to 1e-016
+Changing Tseed to 1e-009
Changing Tseed to 1e-011
Changing Tseed to 1e-008
Changing Tseed to 1e-012
Changing Tseed to 1e-007
Changing Tseed to 1e-013
Changing Tseed to 1e-006
Changing Tseed to 1e-014
Changing Tseed to 1e-005
Changing Tseed to 1e-015
Changing Tseed to 0.0001
Changing Tseed to 1e-016
+Changing Tseed to 1e-009
Changing Tseed to 1e-011
Changing Tseed to 1e-008
Changing Tseed to 1e-012
Changing Tseed to 1e-007
Changing Tseed to 1e-013
Changing Tseed to 1e-006
Changing Tseed to 1e-014
Changing Tseed to 1e-005
Changing Tseed to 1e-015
Changing Tseed to 0.0001
Changing Tseed to 1e-016
+Changing Tseed to 1e-009
Changing Tseed to 1e-011
Changing Tseed to 1e-008
Changing Tseed to 1e-012
Changing Tseed to 1e-007
Changing Tseed to 1e-013
Changing Tseed to 1e-006
Changing Tseed to 1e-014
Changing Tseed to 1e-005
Changing Tseed to 1e-015
Changing Tseed to 0.0001
Changing Tseed to 1e-016
+Changing Tseed to 1e-009
Changing Tseed to 1e-011
Changing Tseed to 1e-008
Changing Tseed to 1e-012
Changing Tseed to 1e-007
Changing Tseed to 1e-013
Changing Tseed to 1e-006
Changing Tseed to 1e-014
Changing Tseed to 1e-005
Changing Tseed to 1e-015
Changing Tseed to 0.0001
Changing Tseed to 1e-016
+Changing Tseed to 1e-009
Changing Tseed to 1e-011
Changing Tseed to 1e-008
Changing Tseed to 1e-012
Changing Tseed to 1e-007
Changing Tseed to 1e-013
Changing Tseed to 1e-006
Changing Tseed to 1e-014
Changing Tseed to 1e-005
Changing Tseed to 1e-015
Changing Tseed to 0.0001
Changing Tseed to 1e-016
+Changing Tseed to 1e-009
Changing Tseed to 1e-011
Changing Tseed to 1e-008
Changing Tseed to 1e-012
Changing Tseed to 1e-007
Changing Tseed to 1e-013
Changing Tseed to 1e-006
Changing Tseed to 1e-014
Changing Tseed to 1e-005
Changing Tseed to 1e-015
Changing Tseed to 0.0001
Changing Tseed to 1e-016
+Changing Tseed to 1e-009
Changing Tseed to 1e-011
Changing Tseed to 1e-008
Changing Tseed to 1e-012
Changing Tseed to 1e-007
Changing Tseed to 1e-013
Changing Tseed to 1e-006
Changing Tseed to 1e-014
Changing Tseed to 1e-005
Changing Tseed to 1e-015
Changing Tseed to 0.0001
Changing Tseed to 1e-016
+Changing Tseed to 1e-009
Changing Tseed to 1e-011
Changing Tseed to 1e-008
Changing Tseed to 1e-012
Changing Tseed to 1e-007
Changing Tseed to 1e-013
Changing Tseed to 1e-006
Changing Tseed to 1e-014
Changing Tseed to 1e-005
Changing Tseed to 1e-015
Changing Tseed to 0.0001
Changing Tseed to 1e-016
+Changing Tseed to 1e-009
Changing Tseed to 1e-011
Changing Tseed to 1e-008
Changing Tseed to 1e-012
Changing Tseed to 1e-007
Changing Tseed to 1e-013
Changing Tseed to 1e-006
Changing Tseed to 1e-014
Changing Tseed to 1e-005
Changing Tseed to 1e-015
Changing Tseed to 0.0001
Changing Tseed to 1e-016
+Changing Tseed to 1e-009
Changing Tseed to 1e-011
Changing Tseed to 1e-008
Changing Tseed to 1e-012
Changing Tseed to 1e-007
Changing Tseed to 1e-013
Changing Tseed to 1e-006
Changing Tseed to 1e-014
Changing Tseed to 1e-005
Changing Tseed to 1e-015
Changing Tseed to 0.0001
Changing Tseed to 1e-016
+Changing Tseed to 1e-009
Changing Tseed to 1e-011
Changing Tseed to 1e-008
Changing Tseed to 1e-012
Changing Tseed to 1e-007
Changing Tseed to 1e-013
Changing Tseed to 1e-006
Changing Tseed to 1e-014
Changing Tseed to 1e-005
Changing Tseed to 1e-015
Changing Tseed to 0.0001
Changing Tseed to 1e-016
+Changing Tseed to 1e-009
Changing Tseed to 1e-011
Changing Tseed to 1e-008
Changing Tseed to 1e-012
Changing Tseed to 1e-007
Changing Tseed to 1e-013
Changing Tseed to 1e-006
Changing Tseed to 1e-014
Changing Tseed to 1e-005
Changing Tseed to 1e-015
Changing Tseed to 0.0001
Changing Tseed to 1e-016
+Changing Tseed to 1e-009
Changing Tseed to 1e-011
Changing Tseed to 1e-008
Changing Tseed to 1e-012
Changing Tseed to 1e-007
Changing Tseed to 1e-013
Changing Tseed to 1e-006
Changing Tseed to 1e-014
Changing Tseed to 1e-005
Changing Tseed to 1e-015
Changing Tseed to 0.0001
Changing Tseed to 1e-016
+Changing Tseed to 1e-009
Changing Tseed to 1e-011
Changing Tseed to 1e-008
Changing Tseed to 1e-012
Changing Tseed to 1e-007
Changing Tseed to 1e-013
Changing Tseed to 1e-006
Changing Tseed to 1e-014
Changing Tseed to 1e-005
Changing Tseed to 1e-015
Changing Tseed to 0.0001
Changing Tseed to 1e-016
+Changing Tseed to 1e-009
Changing Tseed to 1e-011
Changing Tseed to 1e-008
Changing Tseed to 1e-012
Changing Tseed to 1e-007
Changing Tseed to 1e-013
Changing Tseed to 1e-006
Changing Tseed to 1e-014
Changing Tseed to 1e-005
Changing Tseed to 1e-015
Changing Tseed to 0.0001
Changing Tseed to 1e-016
+Changing Tseed to 1e-009
Changing Tseed to 1e-011
Changing Tseed to 1e-008
Changing Tseed to 1e-012
Changing Tseed to 1e-007
Changing Tseed to 1e-013
Changing Tseed to 1e-006
Changing Tseed to 1e-014
Changing Tseed to 1e-005
Changing Tseed to 1e-015
Changing Tseed to 0.0001
Changing Tseed to 1e-016
+Changing Tseed to 1e-009
Changing Tseed to 1e-011
Changing Tseed to 1e-008
Changing Tseed to 1e-012
Changing Tseed to 1e-007
Changing Tseed to 1e-013
Changing Tseed to 1e-006
Changing Tseed to 1e-014
Changing Tseed to 1e-005
Changing Tseed to 1e-015
Changing Tseed to 0.0001
Changing Tseed to 1e-016
+Changing Tseed to 1e-009
Changing Tseed to 1e-011
Changing Tseed to 1e-008
Changing Tseed to 1e-012
Changing Tseed to 1e-007
Changing Tseed to 1e-013
Changing Tseed to 1e-006
Changing Tseed to 1e-014
Changing Tseed to 1e-005
Changing Tseed to 1e-015
Changing Tseed to 0.0001
Changing Tseed to 1e-016
+Changing Tseed to 1e-009
Changing Tseed to 1e-011
Changing Tseed to 1e-008
Changing Tseed to 1e-012
Changing Tseed to 1e-007
Changing Tseed to 1e-013
Changing Tseed to 1e-006
Changing Tseed to 1e-014
Changing Tseed to 1e-005
Changing Tseed to 1e-015
Changing Tseed to 0.0001
Changing Tseed to 1e-016
+Changing Tseed to 1e-009
Changing Tseed to 1e-011
Changing Tseed to 1e-008
Changing Tseed to 1e-012
Changing Tseed to 1e-007
Changing Tseed to 1e-013
Changing Tseed to 1e-006
Changing Tseed to 1e-014
Changing Tseed to 1e-005
Changing Tseed to 1e-015
Changing Tseed to 0.0001
Changing Tseed to 1e-016
+Changing Tseed to 1e-009
Changing Tseed to 1e-011
Changing Tseed to 1e-008
Changing Tseed to 1e-012
Changing Tseed to 1e-007
Changing Tseed to 1e-013
Changing Tseed to 1e-006
Changing Tseed to 1e-014
Changing Tseed to 1e-005
Changing Tseed to 1e-015
Changing Tseed to 0.0001
Changing Tseed to 1e-016
+Changing Tseed to 1e-009
Changing Tseed to 1e-011
Changing Tseed to 1e-008
Changing Tseed to 1e-012
Changing Tseed to 1e-007
Changing Tseed to 1e-013
Changing Tseed to 1e-006
Changing Tseed to 1e-014
Changing Tseed to 1e-005
Changing Tseed to 1e-015
Changing Tseed to 0.0001
Changing Tseed to 1e-016
+Changing Tseed to 1e-009
Changing Tseed to 1e-011
Changing Tseed to 1e-008
Changing Tseed to 1e-012
Changing Tseed to 1e-007
Changing Tseed to 1e-013
Changing Tseed to 1e-006
Changing Tseed to 1e-014
Changing Tseed to 1e-005
Changing Tseed to 1e-015
Changing Tseed to 0.0001
Changing Tseed to 1e-016
+Changing Tseed to 1e-009
Changing Tseed to 1e-011
Changing Tseed to 1e-008
Changing Tseed to 1e-012
Changing Tseed to 1e-007
Changing Tseed to 1e-013
Changing Tseed to 1e-006
Changing Tseed to 1e-014
Changing Tseed to 1e-005
Changing Tseed to 1e-015
Changing Tseed to 0.0001
Changing Tseed to 1e-016
+Changing Tseed to 1e-009
Changing Tseed to 1e-011
Changing Tseed to 1e-008
Changing Tseed to 1e-012
Changing Tseed to 1e-007
Changing Tseed to 1e-013
Changing Tseed to 1e-006
Changing Tseed to 1e-014
Changing Tseed to 1e-005
Changing Tseed to 1e-015
Changing Tseed to 0.0001
Changing Tseed to 1e-016
+Changing Tseed to 1e-009
Changing Tseed to 1e-011
Changing Tseed to 1e-008
Changing Tseed to 1e-012
Changing Tseed to 1e-007
Changing Tseed to 1e-013
Changing Tseed to 1e-006
Changing Tseed to 1e-014
Changing Tseed to 1e-005
Changing Tseed to 1e-015
Changing Tseed to 0.0001
Changing Tseed to 1e-016
+Changing Tseed to 1e-009
Changing Tseed to 1e-011
Changing Tseed to 1e-008
Changing Tseed to 1e-012
Changing Tseed to 1e-007
Changing Tseed to 1e-013
Changing Tseed to 1e-006
Changing Tseed to 1e-014
Changing Tseed to 1e-005
Changing Tseed to 1e-015
Changing Tseed to 0.0001
Changing Tseed to 1e-016
+Changing Tseed to 1e-009
Changing Tseed to 1e-011
Changing Tseed to 1e-008
Changing Tseed to 1e-012
Changing Tseed to 1e-007
Changing Tseed to 1e-013
Changing Tseed to 1e-006
Changing Tseed to 1e-014
Changing Tseed to 1e-005
Changing Tseed to 1e-015
Changing Tseed to 0.0001
Changing Tseed to 1e-016
+Changing Tseed to 1e-009
Changing Tseed to 1e-011
Changing Tseed to 1e-008
Changing Tseed to 1e-012
Changing Tseed to 1e-007
Changing Tseed to 1e-013
Changing Tseed to 1e-006
Changing Tseed to 1e-014
Changing Tseed to 1e-005
Changing Tseed to 1e-015
Changing Tseed to 0.0001
Changing Tseed to 1e-016
+Changing Tseed to 1e-009
Changing Tseed to 1e-011
to 1.125e-011
Heightened Def Con from 1.125e-011 +++++++++++++++++++++++++++to 2.26125e-009
Heightened Def Con from 2.26125e-009 +++++++++++++++++++to 2.26394e-009
Heightened Def Con from 2.26394e-009 +++++++++++++++to 2.26398e-009
Heightened Def Con from 1.91525e-008 to 2.01681e-008
Heightened Def Con from 5.01664e-005 to 5.01665e-005
Heightened Def Con from 5.51239e-005 to 5.5124e-005
Heightened Def Con from 6.0081e-005 to 6.00812e-005
Heightened Def Con from 6.50379e-005 to 6.5038e-005
Heightened Def Con from 6.99944e-005 to 6.99945e-005
Heightened Def Con from 7.49512e-005 to 7.49513e-005
Heightened Def Con from 7.99064e-005 to 7.99066e-005
Heightened Def Con from 8.48612e-005 to 8.48613e-005
Heightened Def Con from 8.98168e-005 to 8.98169e-005
Heightened Def Con from 9.47713e-005 to 9.47714e-005
Heightened Def Con from 9.97256e-005 to 9.97257e-005
Heightened Def Con from 0.000101158 to 0.000101171
Heightened Def Con from 0.00010468 to 0.00010468
Heightened Def Con from 0.000106062 to 0.000106076
Heightened Def Con from 0.000109632 to 0.000109632
Heightened Def Con from 0.000114584 to 0.000114584
Heightened Def Con from 0.000115878 to 0.000115893
Heightened Def Con from 0.000119536 to 0.000119536
Heightened Def Con from 0.000124488 to 0.000124489
Heightened Def Con from 0.000129439 to 0.000129439
Heightened Def Con from 0.000134389 to 0.000134389
Heightened Def Con from 0.000135526 to 0.00013554
Heightened Def Con from 0.000139339 to 0.000139339
Heightened Def Con from 0.000144288 to 0.000144288
Heightened Def Con from 0.000145352 to 0.000145366
Heightened Def Con from 0.00014546 to 0.000145461
Heightened Def Con from 0.000149236 to 0.000149237
Heightened Def Con from 0.00015026 to 0.00015026
Heightened Def Con from 0.000150272 to 0.000150278
Heightened Def Con from 0.000154184 to 0.000154185
Heightened Def Con from 0.000155175 to 0.000155175
Heightened Def Con from 0.000155187 to 0.000155192
Heightened Def Con from 0.000159131 to 0.000159131
Heightened Def Con from 0.000160087 to 0.000160087
Heightened Def Con from 0.000160099 to 0.000160105
Heightened Def Con from 0.000164074 to 0.000164076
Heightened Def Con from 0.000164077 to 0.000164077
Heightened Def Con from 0.000165009 to 0.000165009
Heightened Def Con from 0.000165021 to 0.000165031
Heightened Def Con from 0.000169019 to 0.000169021
Heightened Def Con from 0.000169023 to 0.000169023
Heightened Def Con from 0.000169921 to 0.000169921
Heightened Def Con from 0.000169933 to 0.000169943
Heightened Def Con from 0.000173964 to 0.000173966
Heightened Def Con from 0.000173968 to 0.000173968
Heightened Def Con from 0.00017484 to 0.00017484
Heightened Def Con from 0.000174852 to 0.000174862
Heightened Def Con from 0.000178909 to 0.000178911
Heightened Def Con from 0.000178912 to 0.000178913
Heightened Def Con from 0.000179761 to 0.000179761
Heightened Def Con from 0.000179773 to 0.000179783
Heightened Def Con from 0.000183852 to 0.000183854
Heightened Def Con from 0.000183856 to 0.000183856
Heightened Def Con from 0.000184681 to 0.000184681
Heightened Def Con from 0.000184693 to 0.000184703
Heightened Def Con from 0.000188799 to 0.000188799
Heightened Def Con from 0.000189601 to 0.000189601
Heightened Def Con from 0.000189613 to 0.000189623
Heightened Def Con from 0.000193741 to 0.000193741
Heightened Def Con from 0.000194522 to 0.000194522
Heightened Def Con from 0.000194534 to 0.000194544
Heightened Def Con from 0.000198682 to 0.000198682
Heightened Def Con from 0.000199443 to 0.000199443
Heightened Def Con from 0.000199455 to 0.000199465
Heightened Def Con from 0.000203621 to 0.000203621
Heightened Def Con from 0.000204366 to 0.000204367
Heightened Def Con from 0.000204378 to 0.000204388
Heightened Def Con from 0.000208558 to 0.00020856
Heightened Def Con from 0.000208561 to 0.000208562
Heightened Def Con from 0.000209293 to 0.000209293
Heightened Def Con from 0.000209305 to 0.000209315
Heightened Def Con from 0.000213498 to 0.0002135
Heightened Def Con from 0.000213501 to 0.000213502
Heightened Def Con from 0.000214217 to 0.000214218
Heightened Def Con from 0.000214229 to 0.000214239
Heightened Def Con from 0.000218439 to 0.000218439
Heightened Def Con from 0.000219145 to 0.000219145
Heightened Def Con from 0.000219156 to 0.000219166
Heightened Def Con from 0.000223372 to 0.000223375
Heightened Def Con from 0.000223376 to 0.000223376
Heightened Def Con from 0.000224069 to 0.000224069
Heightened Def Con from 0.000224081 to 0.000224091
Heightened Def Con from 0.000228313 to 0.000228313
Heightened Def Con from 0.000228994 to 0.000228994
Heightened Def Con from 0.000229006 to 0.000229016
Heightened Def Con from 0.000233244 to 0.000233246
Heightened Def Con from 0.000233247 to 0.000233247
Heightened Def Con from 0.000233929 to 0.00023393
Heightened Def Con from 0.000233941 to 0.000233951
Heightened Def Con from 0.000238155 to 0.000238179
Heightened Def Con from 0.000238181 to 0.000238181
Heightened Def Con from 0.000238858 to 0.000238858
Heightened Def Con from 0.00023887 to 0.00023888
Heightened Def Con from 0.000243112 to 0.000243114
Heightened Def Con from 0.000243116 to 0.000243116
Heightened Def Con from 0.000243782 to 0.000243782
Heightened Def Con from 0.000243794 to 0.000243804
Heightened Def Con from 0.000248046 to 0.000248048
Heightened Def Con from 0.00024805 to 0.00024805
Heightened Def Con from 0.00024872 to 0.00024872
Heightened Def Con from 0.000248731 to 0.000248742
Heightened Def Con from 0.000252977 to 0.000252979
Heightened Def Con from 0.000252981 to 0.000252981
Heightened Def Con from 0.000253648 to 0.000253648
Heightened Def Con from 0.00025366 to 0.00025367
Heightened Def Con from 0.000257909 to 0.000257911
Heightened Def Con from 0.000257912 to 0.000257912
Heightened Def Con from 0.000258583 to 0.000258583
Heightened Def Con from 0.000258595 to 0.000258605
Heightened Def Con from 0.00026284 to 0.000262842
Heightened Def Con from 0.000262844 to 0.000262844
Heightened Def Con from 0.000263519 to 0.000263519
Heightened Def Con from 0.00026353 to 0.00026354
Heightened Def Con from 0.00026777 to 0.000267772
Heightened Def Con from 0.000267773 to 0.000267773
Heightened Def Con from 0.000268453 to 0.000268453
Heightened Def Con from 0.000268464 to 0.000268474
Heightened Def Con from 0.000272703 to 0.000272703
Heightened Def Con from 0.000273391 to 0.000273391
Heightened Def Con from 0.000273402 to 0.000273411
Heightened Def Con from 0.000277626 to 0.000277628
Heightened Def Con from 0.00027763 to 0.00027763
Heightened Def Con from 0.000278325 to 0.000278325
Heightened Def Con from 0.000278336 to 0.000278345
Heightened Def Con from 0.000282558 to 0.000282558
Heightened Def Con from 0.000283266 to 0.000283266
Heightened Def Con from 0.000283277 to 0.000283286
Heightened Def Con from 0.000287481 to 0.000287483
Heightened Def Con from 0.000287485 to 0.000287485
Heightened Def Con from 0.000288206 to 0.000288206
Heightened Def Con from 0.000288218 to 0.000288228
Heightened Def Con from 0.000292411 to 0.000292411
Heightened Def Con from 0.000293147 to 0.000293147
Heightened Def Con from 0.000293159 to 0.000293167
Heightened Def Con from 0.000297331 to 0.000297333
Heightened Def Con from 0.000297335 to 0.000297335
Heightened Def Con from 0.000298084 to 0.000298085
Heightened Def Con from 0.000298096 to 0.000298106
Heightened Def Con from 0.00030226 to 0.00030226
Heightened Def Con from 0.000303024 to 0.000303024
Heightened Def Con from 0.000303035 to 0.000303045
Heightened Def Con from 0.000307182 to 0.000307182
Heightened Def Con from 0.000307968 to 0.000307968
Heightened Def Con from 0.000307979 to 0.000307989
Heightened Def Con from 0.000312105 to 0.000312105
Heightened Def Con from 0.000312911 to 0.000312911
Heightened Def Con from 0.000312922 to 0.000312932
Heightened Def Con from 0.000317027 to 0.000317027
Heightened Def Con from 0.000317855 to 0.000317855
Heightened Def Con from 0.000317866 to 0.000317876
Heightened Def Con from 0.000321948 to 0.000321948
Heightened Def Con from 0.000322799 to 0.000322799
Heightened Def Con from 0.000322811 to 0.000322821
Heightened Def Con from 0.000327748 to 0.000327749
Heightened Def Con from 0.00032776 to 0.00032777
Heightened Def Con from 0.00033179 to 0.00033179
Heightened Def Con from 0.000332697 to 0.000332697
Heightened Def Con from 0.000332708 to 0.000332718
Heightened Def Con from 0.000336705 to 0.000336707
Heightened Def Con from 0.000336708 to 0.000336708
Heightened Def Con from 0.000337645 to 0.000337645
Heightened Def Con from 0.000337657 to 0.000337667
Heightened Def Con from 0.000341624 to 0.000341626
Heightened Def Con from 0.000341627 to 0.000341627
Heightened Def Con from 0.000342591 to 0.000342591
Heightened Def Con from 0.000342603 to 0.000342613
Heightened Def Con from 0.000346542 to 0.000346544
Heightened Def Con from 0.000346545 to 0.000346545
Heightened Def Con from 0.00034754 to 0.00034754
Heightened Def Con from 0.000347551 to 0.000347561
Heightened Def Con from 0.000351461 to 0.000351462
Heightened Def Con from 0.000352492 to 0.000352492
Heightened Def Con from 0.000352504 to 0.000352514
Heightened Def Con from 0.000356378 to 0.000356378
Heightened Def Con from 0.000357445 to 0.000357445
Heightened Def Con from 0.000357457 to 0.000357467
Heightened Def Con from 0.000361291 to 0.000361293
Heightened Def Con from 0.000361294 to 0.000361294
Heightened Def Con from 0.000362393 to 0.000362393
Heightened Def Con from 0.000362405 to 0.000362415
Heightened Def Con from 0.000366209 to 0.000366209
Heightened Def Con from 0.000367346 to 0.000367346
Heightened Def Con from 0.000367358 to 0.000367366
Heightened Def Con from 0.000371121 to 0.000371123
Heightened Def Con from 0.000371124 to 0.000371124
Heightened Def Con from 0.000372302 to 0.000372302
Heightened Def Con from 0.000372313 to 0.000372323
Heightened Def Con from 0.000376034 to 0.000376036
Heightened Def Con from 0.000376038 to 0.000376038
Heightened Def Con from 0.000377255 to 0.000377255
Heightened Def Con from 0.000377267 to 0.000377277
Heightened Def Con from 0.000380948 to 0.000380951
Heightened Def Con from 0.000380952 to 0.000380952
Heightened Def Con from 0.000382206 to 0.000382206
Heightened Def Con from 0.000382217 to 0.000382227
Heightened Def Con from 0.000385865 to 0.000385865
Heightened Def Con from 0.000387165 to 0.000387165
Heightened Def Con from 0.000387176 to 0.000387186
Heightened Def Con from 0.000390773 to 0.000390775
Heightened Def Con from 0.000390776 to 0.000390776
Heightened Def Con from 0.000392115 to 0.000392119
Heightened Def Con from 0.00039212 to 0.00039212
Heightened Def Con from 0.000392131 to 0.000392141
Heightened Def Con from 0.000395685 to 0.000395687
Heightened Def Con from 0.000395688 to 0.000395688
Heightened Def Con from 0.000397071 to 0.000397075
Heightened Def Con from 0.000397076 to 0.000397077
Heightened Def Con from 0.000397088 to 0.000397098
Heightened Def Con from 0.000400596 to 0.000400598
Heightened Def Con from 0.000400599 to 0.000400599
Heightened Def Con from 0.000402026 to 0.00040203
Heightened Def Con from 0.000402031 to 0.000402031
Heightened Def Con from 0.000402043 to 0.000402052
Heightened Def Con from 0.000406985 to 0.000406989
Heightened Def Con from 0.00040699 to 0.000406991
Heightened Def Con from 0.000407002 to 0.000407011
Heightened Def Con from 0.000410417 to 0.000410419
Heightened Def Con from 0.000410421 to 0.000410421
Heightened Def Con from 0.00041194 to 0.000411944
Heightened Def Con from 0.000411945 to 0.000411945
Heightened Def Con from 0.000411957 to 0.000411959
Heightened Def Con from 0.000415332 to 0.000415332
Heightened Def Con from 0.000416905 to 0.000416905
Heightened Def Con from 0.000416917 to 0.000416927
Heightened Def Con from 0.00042024 to 0.00042024
Heightened Def Con from 0.000421861 to 0.000421865
Heightened Def Con from 0.000421866 to 0.000421866
Heightened Def Con from 0.00042515 to 0.00042515
Heightened Def Con from 0.00042682 to 0.000426824
Heightened Def Con from 0.000426825 to 0.000426826
Heightened Def Con from 0.000430058 to 0.000430059
Heightened Def Con from 0.000431783 to 0.000431785
Heightened Def Con from 0.000431787 to 0.000431787
Heightened Def Con from 0.000434966 to 0.000434966
Heightened Def Con from 0.00043674 to 0.000436746
Heightened Def Con from 0.000436746 to 0.000436747
Heightened Def Con from 0.000439872 to 0.000439874
Heightened Def Con from 0.000441705 to 0.000441705
Heightened Def Con from 0.000444782 to 0.000444782
Heightened Def Con from 0.000446667 to 0.000446668
Heightened Def Con from 0.00044969 to 0.00044969
Heightened Def Con from 0.000451624 to 0.000451624
Heightened Def Con from 0.000454598 to 0.000454598
Heightened Def Con from 0.000456589 to 0.00045659
Heightened Def Con from 0.000459504 to 0.000459504
Heightened Def Con from 0.000461553 to 0.000461553
Heightened Def Con from 0.000464409 to 0.000464411
Heightened Def Con from 0.000464412 to 0.000464412
Heightened Def Con from 0.000466513 to 0.000466513
Heightened Def Con from 0.000469319 to 0.000469319
Heightened Def Con from 0.000471476 to 0.000471476
Heightened Def Con from 0.000474224 to 0.000474224
Heightened Def Con from 0.000476439 to 0.000476439
Heightened Def Con from 0.000479128 to 0.000479129
Heightened Def Con from 0.000479131 to 0.000479131
Heightened Def Con from 0.000481403 to 0.000481404
Heightened Def Con from 0.000481407 to 0.000481425
Heightened Def Con from 0.000484038 to 0.000484038
Heightened Def Con from 0.000486359 to 0.000486359
Heightened Def Con from 0.000486362 to 0.00048638
Heightened Def Con from 0.000488943 to 0.000488943
Heightened Def Con from 0.000491329 to 0.000491348
Heightened Def Con from 0.000493849 to 0.000493849
Heightened Def Con from 0.00049629 to 0.00049629
Heightened Def Con from 0.000496292 to 0.000496312
Heightened Def Con from 0.000498755 to 0.000498755
Heightened Def Con from 0.000501248 to 0.000501248
Heightened Def Con from 0.000501249 to 0.00050127
Heightened Def Con from 0.000503662 to 0.000503662
Heightened Def Con from 0.000503663 to 0.000503684
Heightened Def Con from 0.000506214 to 0.000506214
Heightened Def Con from 0.000506215 to 0.000506236
Heightened Def Con from 0.000508568 to 0.000508568
Heightened Def Con from 0.000508569 to 0.000508591
Heightened Def Con from 0.000511176 to 0.000511176
Heightened Def Con from 0.000511176 to 0.000511198
Heightened Def Con from 0.000513474 to 0.000513474
Heightened Def Con from 0.00051614 to 0.00051614
Heightened Def Con from 0.00051838 to 0.00051838
Heightened Def Con from 0.000518383 to 0.000518402
Heightened Def Con from 0.000521104 to 0.000521104
Heightened Def Con from 0.000521104 to 0.000521104
Heightened Def Con from 0.000523287 to 0.000523287
Heightened Def Con from 0.00052329 to 0.000523309
Heightened Def Con from 0.000526063 to 0.000526063
Heightened Def Con from 0.000528193 to 0.000528193
Heightened Def Con from 0.000531028 to 0.000531028
Heightened Def Con from 0.000531029 to 0.000531029
Heightened Def Con from 0.0005331 to 0.0005331
Heightened Def Con from 0.00053599 to 0.00053599
Heightened Def Con from 0.000538006 to 0.000538007
Heightened Def Con from 0.00054095 to 0.00054095
Heightened Def Con from 0.000542912 to 0.000542913
Heightened Def Con from 0.000545915 to 0.000545915
Heightened Def Con from 0.00054782 to 0.00054782
Heightened Def Con from 0.000550871 to 0.000550872
Heightened Def Con from 0.000552728 to 0.000552728
Heightened Def Con from 0.000555833 to 0.000555833
Heightened Def Con from 0.000557636 to 0.000557636
Heightened Def Con from 0.000560799 to 0.000560799
Heightened Def Con from 0.000562543 to 0.000562543
Heightened Def Con from 0.000565759 to 0.000565759
Heightened Def Con from 0.000567452 to 0.000567452
Heightened Def Con from 0.000570715 to 0.000570716
Heightened Def Con from 0.000570718 to 0.000570718
Heightened Def Con from 0.000572353 to 0.000572359
Heightened Def Con from 0.00057236 to 0.00057236
Heightened Def Con from 0.000575677 to 0.000575677
Heightened Def Con from 0.000577269 to 0.000577269
Heightened Def Con from 0.00057728 to 0.000577282
Heightened Def Con from 0.000580629 to 0.00058063
Heightened Def Con from 0.000580632 to 0.000580632
Heightened Def Con from 0.000582179 to 0.000582179
Heightened Def Con from 0.00058219 to 0.000582194
Heightened Def Con from 0.000585593 to 0.000585594
Heightened Def Con from 0.000585595 to 0.000585595
Heightened Def Con from 0.000587088 to 0.000587089
Heightened Def Con from 0.000587099 to 0.000587108
Heightened Def Con from 0.000590551 to 0.000590552
Heightened Def Con from 0.000590554 to 0.000590554
Heightened Def Con from 0.000591991 to 0.000591997
Heightened Def Con from 0.000591998 to 0.000591998
Heightened Def Con from 0.000592009 to 0.00059202
Heightened Def Con from 0.000595508 to 0.000595509
Heightened Def Con from 0.000595511 to 0.000595511
Heightened Def Con from 0.00059691 to 0.00059691
Heightened Def Con from 0.000596921 to 0.000596932
Heightened Def Con from 0.000600472 to 0.000600472
Heightened Def Con from 0.000601813 to 0.000601819
Heightened Def Con from 0.00060182 to 0.00060182
Heightened Def Con from 0.00060183 to 0.000601841
Heightened Def Con from 0.000605423 to 0.000605424
Heightened Def Con from 0.000605425 to 0.000605425
Heightened Def Con from 0.000606726 to 0.000606732
Heightened Def Con from 0.000606733 to 0.000606733
Heightened Def Con from 0.000606743 to 0.000606754
Heightened Def Con from 0.000610381 to 0.000610382
Heightened Def Con from 0.000610383 to 0.000610383
Heightened Def Con from 0.000611637 to 0.000611643
Heightened Def Con from 0.000611644 to 0.000611644
Heightened Def Con from 0.000611655 to 0.000611666
Heightened Def Con from 0.000615337 to 0.000615337
Heightened Def Con from 0.00061655 to 0.000616556
Heightened Def Con from 0.000616557 to 0.000616557
Heightened Def Con from 0.000616568 to 0.000616574
Heightened Def Con from 0.000620295 to 0.000620295
Heightened Def Con from 0.000621469 to 0.00062147
Heightened Def Con from 0.00062148 to 0.000621491
Heightened Def Con from 0.000625245 to 0.000625245
Heightened Def Con from 0.000626376 to 0.000626382
Heightened Def Con from 0.000626383 to 0.000626383
Heightened Def Con from 0.000626394 to 0.000626402
Heightened Def Con from 0.000630198 to 0.0006302
Heightened Def Con from 0.0006302 to 0.0006302
Heightened Def Con from 0.000631291 to 0.000631297
Heightened Def Con from 0.000631298 to 0.000631298
Heightened Def Con from 0.000631309 to 0.000631317
Heightened Def Con from 0.000635149 to 0.00063515
Heightened Def Con from 0.000635151 to 0.000635151
Heightened Def Con from 0.000636205 to 0.000636211
Heightened Def Con from 0.000636212 to 0.000636212
Heightened Def Con from 0.000636223 to 0.00063623
Heightened Def Con from 0.0006401 to 0.000640102
Heightened Def Con from 0.000640102 to 0.000640103
Heightened Def Con from 0.000641121 to 0.000641127
Heightened Def Con from 0.000641127 to 0.000641128
Heightened Def Con from 0.000641138 to 0.000641149
Heightened Def Con from 0.000645057 to 0.000645057
Heightened Def Con from 0.000646039 to 0.000646042
Heightened Def Con from 0.000646043 to 0.000646043
Heightened Def Con from 0.000646054 to 0.000646063
Heightened Def Con from 0.000650005 to 0.000650005
Heightened Def Con from 0.000650956 to 0.000650959
Heightened Def Con from 0.00065096 to 0.00065096
Heightened Def Con from 0.000650971 to 0.00065098
Heightened Def Con from 0.000654957 to 0.000654957
Heightened Def Con from 0.000655878 to 0.000655878
Heightened Def Con from 0.000655888 to 0.000655897
Heightened Def Con from 0.000659899 to 0.000659901
Heightened Def Con from 0.000659902 to 0.000659902
Heightened Def Con from 0.000660795 to 0.000660795
Heightened Def Con from 0.000660806 to 0.000660814
Heightened Def Con from 0.00066485 to 0.000664852
Heightened Def Con from 0.000664853 to 0.000664853
Heightened Def Con from 0.00066571 to 0.000665713
Heightened Def Con from 0.000665714 to 0.000665715
Heightened Def Con from 0.000665725 to 0.000665732
Heightened Def Con from 0.000669798 to 0.000669798
Heightened Def Con from 0.000670629 to 0.000670632
Heightened Def Con from 0.000670633 to 0.000670633
Heightened Def Con from 0.000670644 to 0.000670651
Heightened Def Con from 0.00067474 to 0.000674742
Heightened Def Con from 0.000674743 to 0.000674743
Heightened Def Con from 0.000675546 to 0.000675552
Heightened Def Con from 0.000675553 to 0.000675553
Heightened Def Con from 0.000675563 to 0.00067557
Heightened Def Con from 0.000679689 to 0.000679689
Heightened Def Con from 0.000680468 to 0.000680473
Heightened Def Con from 0.000680474 to 0.000680474
Heightened Def Con from 0.000680485 to 0.000680492
Heightened Def Con from 0.000684633 to 0.000684635
Heightened Def Con from 0.000684636 to 0.000684636
Heightened Def Con from 0.000685389 to 0.000685395
Heightened Def Con from 0.000685395 to 0.000685395
Heightened Def Con from 0.000685406 to 0.000685413
Heightened Def Con from 0.000689581 to 0.000689581
Heightened Def Con from 0.000690311 to 0.000690317
Heightened Def Con from 0.000690318 to 0.000690318
Heightened Def Con from 0.000690328 to 0.000690335
Heightened Def Con from 0.000694526 to 0.000694526
Heightened Def Con from 0.000695235 to 0.00069524
Heightened Def Con from 0.000695241 to 0.000695242
Heightened Def Con from 0.000695252 to 0.000695259
Heightened Def Con from 0.000699464 to 0.000699464
Heightened Def Con from 0.000700165 to 0.000700165
Heightened Def Con from 0.000700176 to 0.000700183
Heightened Def Con from 0.000704408 to 0.000704408
Heightened Def Con from 0.000705088 to 0.000705089
Heightened Def Con from 0.000705099 to 0.000705106
Heightened Def Con from 0.000709348 to 0.000709348
Heightened Def Con from 0.000710014 to 0.000710015
Heightened Def Con from 0.000710025 to 0.000710032
Heightened Def Con from 0.000714284 to 0.000714284
Heightened Def Con from 0.000714937 to 0.00071494
Heightened Def Con from 0.000714941 to 0.000714941
Heightened Def Con from 0.000714951 to 0.000714958
Heightened Def Con from 0.000719225 to 0.000719226
Heightened Def Con from 0.000719863 to 0.000719866
Heightened Def Con from 0.000719867 to 0.000719867
Heightened Def Con from 0.000719878 to 0.000719885
Heightened Def Con from 0.000724163 to 0.000724165
Heightened Def Con from 0.000724166 to 0.000724166
Heightened Def Con from 0.000724788 to 0.000724793
Heightened Def Con from 0.000724795 to 0.000724795
Heightened Def Con from 0.000724805 to 0.000724812
Heightened Def Con from 0.000729098 to 0.000729099
Heightened Def Con from 0.00072972 to 0.000729723
Heightened Def Con from 0.000729724 to 0.000729724
Heightened Def Con from 0.000729734 to 0.000729741
Heightened Def Con from 0.000734036 to 0.000734036
Heightened Def Con from 0.00073465 to 0.000734653
Heightened Def Con from 0.000734654 to 0.000734654
Heightened Def Con from 0.000734664 to 0.000734671
Heightened Def Con from 0.000738969 to 0.000738969
Heightened Def Con from 0.000739577 to 0.000739582
Heightened Def Con from 0.000739583 to 0.000739584
Heightened Def Con from 0.000739594 to 0.000739601
Heightened Def Con from 0.000743902 to 0.000743904
Heightened Def Con from 0.000743905 to 0.000743905
Heightened Def Con from 0.000744511 to 0.000744514
Heightened Def Con from 0.000744515 to 0.000744515
Heightened Def Con from 0.000744526 to 0.000744533
Heightened Def Con from 0.000748834 to 0.000748834
Heightened Def Con from 0.00074944 to 0.000749445
Heightened Def Con from 0.000749446 to 0.000749446
Heightened Def Con from 0.000749457 to 0.000749464
Heightened Def Con from 0.000753768 to 0.000753769
Heightened Def Con from 0.000754379 to 0.000754379
Heightened Def Con from 0.00075439 to 0.000754397
Heightened Def Con from 0.000758699 to 0.000758699
Heightened Def Con from 0.000759313 to 0.000759313
Heightened Def Con from 0.000759324 to 0.000759331
Heightened Def Con from 0.000763633 to 0.000763634
Heightened Def Con from 0.000764246 to 0.000764246
Heightened Def Con from 0.000764257 to 0.000764264
Heightened Def Con from 0.000768558 to 0.000768559
Heightened Def Con from 0.000769182 to 0.000769182
Heightened Def Con from 0.000769193 to 0.0007692
Heightened Def Con from 0.000773489 to 0.000773489
Heightened Def Con from 0.000774118 to 0.000774118
Heightened Def Con from 0.000774128 to 0.000774135
Heightened Def Con from 0.000778415 to 0.000778415
Heightened Def Con from 0.00077905 to 0.000779053
Heightened Def Con from 0.000779055 to 0.000779055
Heightened Def Con from 0.000779065 to 0.000779072
Heightened Def Con from 0.000783339 to 0.000783341
Heightened Def Con from 0.000783342 to 0.000783342
Heightened Def Con from 0.000783991 to 0.000783991
Heightened Def Con from 0.000784002 to 0.000784009
Heightened Def Con from 0.000788265 to 0.000788266
Heightened Def Con from 0.000788268 to 0.000788268
Heightened Def Con from 0.000788927 to 0.00078893
Heightened Def Con from 0.000788931 to 0.000788931
Heightened Def Con from 0.000788941 to 0.000788948
Heightened Def Con from 0.000793187 to 0.000793188
Heightened Def Con from 0.000793189 to 0.00079319
Heightened Def Con from 0.000793865 to 0.000793868
Heightened Def Con from 0.00079387 to 0.00079387
Heightened Def Con from 0.00079388 to 0.000793887
Heightened Def Con from 0.000798112 to 0.000798113
Heightened Def Con from 0.000798114 to 0.000798114
Heightened Def Con from 0.000798806 to 0.000798809
Heightened Def Con from 0.00079881 to 0.00079881
Heightened Def Con from 0.000798821 to 0.000798828
Heightened Def Con from 0.00080304 to 0.00080304
Heightened Def Con from 0.000803751 to 0.000803751
Heightened Def Con from 0.000803761 to 0.000803768
Heightened Def Con from 0.000807958 to 0.000807958
Heightened Def Con from 0.000808685 to 0.00080869
Heightened Def Con from 0.000808691 to 0.000808692
Heightened Def Con from 0.000808702 to 0.000808709
Heightened Def Con from 0.000812883 to 0.000812883
Heightened Def Con from 0.00081363 to 0.000813633
Heightened Def Con from 0.000813634 to 0.000813634
Heightened Def Con from 0.000813645 to 0.000813652
Heightened Def Con from 0.000817805 to 0.000817805
Heightened Def Con from 0.000818576 to 0.000818577
Heightened Def Con from 0.000818587 to 0.000818594
Heightened Def Con from 0.000822725 to 0.000822725
Heightened Def Con from 0.000823514 to 0.00082352
Heightened Def Con from 0.000823521 to 0.000823521
Heightened Def Con from 0.000823532 to 0.000823539
Heightened Def Con from 0.000827639 to 0.000827639
Heightened Def Con from 0.000828459 to 0.000828464
Heightened Def Con from 0.000828465 to 0.000828466
Heightened Def Con from 0.000828476 to 0.000828483
Heightened Def Con from 0.000832559 to 0.000832559
Heightened Def Con from 0.000833411 to 0.000833411
Heightened Def Con from 0.000833421 to 0.000833428
Heightened Def Con from 0.000837472 to 0.000837472
Heightened Def Con from 0.000838353 to 0.000838356
Heightened Def Con from 0.000838357 to 0.000838357
Heightened Def Con from 0.000838367 to 0.000838374
Heightened Def Con from 0.000842394 to 0.000842394
Heightened Def Con from 0.000843296 to 0.000843302
Heightened Def Con from 0.000843303 to 0.000843303
Heightened Def Con from 0.000843313 to 0.000843322
Heightened Def Con from 0.000847304 to 0.000847304
Heightened Def Con from 0.000848244 to 0.00084825
Heightened Def Con from 0.00084825 to 0.00084825
Heightened Def Con from 0.000848261 to 0.00084827
Heightened Def Con from 0.000852219 to 0.000852219
Heightened Def Con from 0.000853192 to 0.000853198
Heightened Def Con from 0.000853199 to 0.000853199
Heightened Def Con from 0.00085321 to 0.000853219
Heightened Def Con from 0.000857134 to 0.000857134
Heightened Def Con from 0.000858141 to 0.000858147
Heightened Def Con from 0.000858148 to 0.000858148
Heightened Def Con from 0.000858158 to 0.000858166
Heightened Def Con from 0.000862045 to 0.000862047
Heightened Def Con from 0.000862048 to 0.000862048
Heightened Def Con from 0.00086309 to 0.000863095
Heightened Def Con from 0.000863097 to 0.000863097
Heightened Def Con from 0.000863107 to 0.000863115
Heightened Def Con from 0.000866962 to 0.000866962
Heightened Def Con from 0.000868042 to 0.000868045
Heightened Def Con from 0.000868046 to 0.000868046
Heightened Def Con from 0.000868057 to 0.000868064
Heightened Def Con from 0.000871873 to 0.000871873
Heightened Def Con from 0.000872991 to 0.000872997
Heightened Def Con from 0.000872998 to 0.000872998
Heightened Def Con from 0.000873008 to 0.000873016
Heightened Def Con from 0.000876781 to 0.000876783
Heightened Def Con from 0.000876783 to 0.000876783
Heightened Def Con from 0.000877941 to 0.000877947
Heightened Def Con from 0.000877948 to 0.000877948
Heightened Def Con from 0.000877959 to 0.00087797
Heightened Def Con from 0.000881689 to 0.00088169
Heightened Def Con from 0.000881691 to 0.000881691
Heightened Def Con from 0.000882893 to 0.000882899
Heightened Def Con from 0.0008829 to 0.0008829
Heightened Def Con from 0.000882911 to 0.000882922
Heightened Def Con from 0.000886603 to 0.000886604
Heightened Def Con from 0.000887846 to 0.000887852
Heightened Def Con from 0.000887853 to 0.000887853
Heightened Def Con from 0.000887863 to 0.000887874
Heightened Def Con from 0.000891514 to 0.000891514
Heightened Def Con from 0.000892802 to 0.000892805
Heightened Def Con from 0.000892806 to 0.000892806
Heightened Def Con from 0.000892816 to 0.000892827
Heightened Def Con from 0.000896424 to 0.000896424
Heightened Def Con from 0.000897751 to 0.000897757
Heightened Def Con from 0.000897758 to 0.000897758
Heightened Def Con from 0.000897769 to 0.00089778
Heightened Def Con from 0.000901331 to 0.000901331
Heightened Def Con from 0.000902706 to 0.000902712
Heightened Def Con from 0.000902713 to 0.000902714
Heightened Def Con from 0.000902724 to 0.000902729
Heightened Def Con from 0.00090624 to 0.00090624
Heightened Def Con from 0.00090766 to 0.000907666
Heightened Def Con from 0.000907667 to 0.000907667
Heightened Def Con from 0.000907678 to 0.000907689
Heightened Def Con from 0.000911143 to 0.000911143
Heightened Def Con from 0.000912616 to 0.000912622
Heightened Def Con from 0.000912623 to 0.000912623
Heightened Def Con from 0.000912634 to 0.000912645
Heightened Def Con from 0.000916047 to 0.000916048
Heightened Def Con from 0.00091605 to 0.00091605
Heightened Def Con from 0.000917578 to 0.000917578
Heightened Def Con from 0.000917589 to 0.0009176
Heightened Def Con from 0.000920955 to 0.000920956
Heightened Def Con from 0.000922534 to 0.000922534
Heightened Def Con from 0.000922544 to 0.000922548
Heightened Def Con from 0.000925865 to 0.000925865
Heightened Def Con from 0.00092749 to 0.00092749
Heightened Def Con from 0.000927501 to 0.000927512
Heightened Def Con from 0.000930771 to 0.000930772
Heightened Def Con from 0.00093244 to 0.000932446
Heightened Def Con from 0.000932447 to 0.000932447
Heightened Def Con from 0.000935672 to 0.000935672
Heightened Def Con from 0.000937403 to 0.000937403
Heightened Def Con from 0.00094058 to 0.00094058
Heightened Def Con from 0.00094236 to 0.00094236
Heightened Def Con from 0.000945477 to 0.000945478
Heightened Def Con from 0.000945479 to 0.000945479
Heightened Def Con from 0.000947317 to 0.000947318
Heightened Def Con from 0.000950382 to 0.000950383
Heightened Def Con from 0.000950384 to 0.000950384
Heightened Def Con from 0.000952275 to 0.000952275
Heightened Def Con from 0.000955291 to 0.000955291
Heightened Def Con from 0.000957233 to 0.000957233
Heightened Def Con from 0.000960189 to 0.00096019
Heightened Def Con from 0.000960191 to 0.000960191
Heightened Def Con from 0.000962192 to 0.000962192
Heightened Def Con from 0.000965093 to 0.000965093
Heightened Def Con from 0.000967149 to 0.000967149
Heightened Def Con from 0.000969999 to 0.00097
Heightened Def Con from 0.000972108 to 0.000972108
Heightened Def Con from 0.000974902 to 0.000974902
Heightened Def Con from 0.000977067 to 0.000977067
Heightened Def Con from 0.00097707 to 0.000977071
Heightened Def Con from 0.000979803 to 0.000979803
Heightened Def Con from 0.000979804 to 0.000979804
Heightened Def Con from 0.000982025 to 0.000982026
Heightened Def Con from 0.000984704 to 0.000984704
Heightened Def Con from 0.000984705 to 0.000984705
Heightened Def Con from 0.000986984 to 0.000986984
Heightened Def Con from 0.000986986 to 0.000987006
Heightened Def Con from 0.000989611 to 0.000989611
Heightened Def Con from 0.000991943 to 0.000991943
Heightened Def Con from 0.000991944 to 0.000991964
Heightened Def Con from 0.000994509 to 0.000994509
Heightened Def Con from 0.00099451 to 0.000994531
Heightened Def Con from 0.000996902 to 0.000996902
Heightened Def Con from 0.000999411 to 0.000999411
Heightened Def Con from 0.000999412 to 0.000999433
Heightened Def Con from 0.00100186 to 0.00100186
Heightened Def Con from 0.00100186 to 0.00100188
Heightened Def Con from 0.00100432 to 0.00100432
Heightened Def Con from 0.00100682 to 0.00100682
Heightened Def Con from 0.00100682 to 0.00100682
Heightened Def Con from 0.00100922 to 0.00100922
Heightened Def Con from 0.00101178 to 0.00101178
Heightened Def Con from 0.00101178 to 0.00101178
Heightened Def Con from 0.00101178 to 0.00101178
Heightened Def Con from 0.00101412 to 0.00101412
Heightened Def Con from 0.00101674 to 0.00101674
Heightened Def Con from 0.00101902 to 0.00101902
Heightened Def Con from 0.00102169 to 0.00102169
Heightened Def Con from 0.0010217 to 0.0010217
Heightened Def Con from 0.00102393 to 0.00102393
Heightened Def Con from 0.00102393 to 0.00102395
Heightened Def Con from 0.00102665 to 0.00102665
Heightened Def Con from 0.00102666 to 0.00102666
Heightened Def Con from 0.00102883 to 0.00102883
Heightened Def Con from 0.00103161 to 0.00103161
Heightened Def Con from 0.00103161 to 0.00103161
Heightened Def Con from 0.00103373 to 0.00103373
Heightened Def Con from 0.00103657 to 0.00103658
Heightened Def Con from 0.00103864 to 0.00103864
Heightened Def Con from 0.00104153 to 0.00104153
Heightened Def Con from 0.00104354 to 0.00104354
Heightened Def Con from 0.00104649 to 0.00104649
Heightened Def Con from 0.00104844 to 0.00104844
Heightened Def Con from 0.00105145 to 0.00105145
Heightened Def Con from 0.00105335 to 0.00105335
Heightened Def Con from 0.00105641 to 0.00105641
Heightened Def Con from 0.00105825 to 0.00105825
Heightened Def Con from 0.00106136 to 0.00106136
Heightened Def Con from 0.00106316 to 0.00106316
Heightened Def Con from 0.00106632 to 0.00106632
Heightened Def Con from 0.00106632 to 0.00106632
Heightened Def Con from 0.00106806 to 0.00106806
Heightened Def Con from 0.00107127 to 0.00107128
Heightened Def Con from 0.00107128 to 0.00107128
Heightened Def Con from 0.00107296 to 0.00107296
Heightened Def Con from 0.00107296 to 0.00107296
Heightened Def Con from 0.00107623 to 0.00107623
Heightened Def Con from 0.00107786 to 0.00107787
Heightened Def Con from 0.00107787 to 0.00107787
Heightened Def Con from 0.00108118 to 0.00108119
Heightened Def Con from 0.00108119 to 0.00108119
Heightened Def Con from 0.00108277 to 0.00108278
Heightened Def Con from 0.00108278 to 0.00108278
Heightened Def Con from 0.00108279 to 0.0010828
Heightened Def Con from 0.00108614 to 0.00108614
Heightened Def Con from 0.00108768 to 0.00108768
Heightened Def Con from 0.00108768 to 0.00108768
Heightened Def Con from 0.00108769 to 0.0010877
Heightened Def Con from 0.00109109 to 0.0010911
Heightened Def Con from 0.0010911 to 0.0010911
Heightened Def Con from 0.00109259 to 0.00109259
Heightened Def Con from 0.00109259 to 0.00109259
Heightened Def Con from 0.0010926 to 0.00109261
Heightened Def Con from 0.00109605 to 0.00109605
Heightened Def Con from 0.00109749 to 0.0010975
Heightened Def Con from 0.0010975 to 0.0010975
Heightened Def Con from 0.00109751 to 0.00109752
Heightened Def Con from 0.001101 to 0.00110101
Heightened Def Con from 0.00110101 to 0.00110101
Heightened Def Con from 0.0011024 to 0.0011024
Heightened Def Con from 0.00110241 to 0.00110241
Heightened Def Con from 0.00110242 to 0.00110243
Heightened Def Con from 0.00110596 to 0.00110596
Heightened Def Con from 0.00110596 to 0.00110596
Heightened Def Con from 0.00110731 to 0.00110731
Heightened Def Con from 0.00110731 to 0.00110731
Heightened Def Con from 0.00110732 to 0.00110733
Heightened Def Con from 0.00111091 to 0.00111091
Heightened Def Con from 0.00111091 to 0.00111091
Heightened Def Con from 0.00111222 to 0.00111222
Heightened Def Con from 0.00111223 to 0.00111224
Heightened Def Con from 0.00111587 to 0.00111587
Heightened Def Con from 0.00111714 to 0.00111714
Heightened Def Con from 0.00111715 to 0.00111716
Heightened Def Con from 0.00112082 to 0.00112082
Heightened Def Con from 0.00112204 to 0.00112204
Heightened Def Con from 0.00112206 to 0.00112207
Heightened Def Con from 0.00112577 to 0.00112577
Heightened Def Con from 0.00112577 to 0.00112577
Heightened Def Con from 0.00112695 to 0.00112695
Heightened Def Con from 0.00112697 to 0.00112698
Heightened Def Con from 0.00113072 to 0.00113072
Heightened Def Con from 0.00113187 to 0.00113187
Heightened Def Con from 0.00113188 to 0.00113189
Heightened Def Con from 0.00113567 to 0.00113567
Heightened Def Con from 0.00113567 to 0.00113567
Heightened Def Con from 0.00113678 to 0.00113678
Heightened Def Con from 0.00113679 to 0.0011368
Heightened Def Con from 0.00114062 to 0.00114062
Heightened Def Con from 0.00114062 to 0.00114062
Heightened Def Con from 0.00114169 to 0.00114169
Heightened Def Con from 0.0011417 to 0.00114171
Heightened Def Con from 0.00114557 to 0.00114557
Heightened Def Con from 0.0011466 to 0.0011466
Heightened Def Con from 0.00114661 to 0.00114662
Heightened Def Con from 0.00115052 to 0.00115052
Heightened Def Con from 0.00115152 to 0.00115152
Heightened Def Con from 0.00115153 to 0.00115154
Heightened Def Con from 0.00115547 to 0.00115547
Heightened Def Con from 0.00115643 to 0.00115643
Heightened Def Con from 0.00115644 to 0.00115645
Heightened Def Con from 0.00116041 to 0.00116041
Heightened Def Con from 0.00116041 to 0.00116041
Heightened Def Con from 0.00116135 to 0.00116135
Heightened Def Con from 0.00116136 to 0.00116137
Heightened Def Con from 0.00116536 to 0.00116536
Heightened Def Con from 0.00116627 to 0.00116627
Heightened Def Con from 0.00116628 to 0.00116628
Heightened Def Con from 0.0011703 to 0.0011703
Heightened Def Con from 0.00117118 to 0.00117118
Heightened Def Con from 0.0011712 to 0.0011712
Heightened Def Con from 0.00117525 to 0.00117525
Heightened Def Con from 0.00117525 to 0.00117525
Heightened Def Con from 0.00117611 to 0.00117611
Heightened Def Con from 0.00117612 to 0.00117612
Heightened Def Con from 0.00118019 to 0.00118019
Heightened Def Con from 0.00118103 to 0.00118103
Heightened Def Con from 0.00118104 to 0.00118104
Heightened Def Con from 0.00118513 to 0.00118513
Heightened Def Con from 0.00118514 to 0.00118514
Heightened Def Con from 0.00118594 to 0.00118594
Heightened Def Con from 0.00118595 to 0.00118596
Heightened Def Con from 0.00119008 to 0.00119008
Heightened Def Con from 0.00119086 to 0.00119086
Heightened Def Con from 0.00119088 to 0.00119088
Heightened Def Con from 0.00119502 to 0.00119502
Heightened Def Con from 0.00119502 to 0.00119502
Heightened Def Con from 0.00119579 to 0.00119579
Heightened Def Con from 0.0011958 to 0.00119581
Heightened Def Con from 0.00119996 to 0.00119996
Heightened Def Con from 0.00120071 to 0.00120071
Heightened Def Con from 0.00120072 to 0.00120073
Heightened Def Con from 0.0012049 to 0.0012049
Heightened Def Con from 0.00120563 to 0.00120563
Heightened Def Con from 0.00120564 to 0.00120565
Heightened Def Con from 0.00120984 to 0.00120984
Heightened Def Con from 0.00120984 to 0.00120984
Heightened Def Con from 0.00121055 to 0.00121055
Heightened Def Con from 0.00121057 to 0.00121057
Heightened Def Con from 0.00121478 to 0.00121478
Heightened Def Con from 0.00121478 to 0.00121478
Heightened Def Con from 0.00121548 to 0.00121548
Heightened Def Con from 0.00121549 to 0.0012155
Heightened Def Con from 0.00121971 to 0.00121971
Heightened Def Con from 0.00121972 to 0.00121972
Heightened Def Con from 0.00122041 to 0.00122041
Heightened Def Con from 0.00122042 to 0.00122042
Heightened Def Con from 0.00122465 to 0.00122465
Heightened Def Con from 0.00122465 to 0.00122465
Heightened Def Con from 0.00122534 to 0.00122534
Heightened Def Con from 0.00122535 to 0.00122536
Heightened Def Con from 0.00122959 to 0.00122959
Heightened Def Con from 0.00122959 to 0.00122959
Heightened Def Con from 0.00123026 to 0.00123026
Heightened Def Con from 0.00123028 to 0.00123028
Heightened Def Con from 0.00123452 to 0.00123452
Heightened Def Con from 0.00123519 to 0.00123519
Heightened Def Con from 0.00123521 to 0.00123521
Heightened Def Con from 0.00123946 to 0.00123946
Heightened Def Con from 0.00123946 to 0.00123946
Heightened Def Con from 0.00124012 to 0.00124012
Heightened Def Con from 0.00124013 to 0.00124014
Heightened Def Con from 0.00124439 to 0.00124439
Heightened Def Con from 0.00124505 to 0.00124505
Heightened Def Con from 0.00124506 to 0.00124507
Heightened Def Con from 0.00124932 to 0.00124932
Heightened Def Con from 0.00124932 to 0.00124933
Heightened Def Con from 0.00124998 to 0.00124999
Heightened Def Con from 0.00125 to 0.00125
Heightened Def Con from 0.00125426 to 0.00125426
Heightened Def Con from 0.00125492 to 0.00125492
Heightened Def Con from 0.00125493 to 0.00125494
Heightened Def Con from 0.00125919 to 0.00125919
Heightened Def Con from 0.00125919 to 0.00125919
Heightened Def Con from 0.00125985 to 0.00125985
Heightened Def Con from 0.00125986 to 0.00125987
Heightened Def Con from 0.00126412 to 0.00126412
Heightened Def Con from 0.00126478 to 0.00126478
Heightened Def Con from 0.0012648 to 0.0012648
Heightened Def Con from 0.00126904 to 0.00126905
Heightened Def Con from 0.00126905 to 0.00126905
Heightened Def Con from 0.00126972 to 0.00126972
Heightened Def Con from 0.00126973 to 0.00126974
Heightened Def Con from 0.00127398 to 0.00127398
Heightened Def Con from 0.00127465 to 0.00127465
Heightened Def Con from 0.00127466 to 0.00127467
Heightened Def Con from 0.00127891 to 0.00127891
Heightened Def Con from 0.00127959 to 0.00127959
Heightened Def Con from 0.00127961 to 0.00127961
Heightened Def Con from 0.00128383 to 0.00128383
Heightened Def Con from 0.00128453 to 0.00128453
Heightened Def Con from 0.00128454 to 0.00128455
Heightened Def Con from 0.00128876 to 0.00128876
Heightened Def Con from 0.00128947 to 0.00128947
Heightened Def Con from 0.00128948 to 0.00128949
Heightened Def Con from 0.00129368 to 0.00129368
Heightened Def Con from 0.00129368 to 0.00129368
Heightened Def Con from 0.00129441 to 0.00129441
Heightened Def Con from 0.00129442 to 0.00129443
Heightened Def Con from 0.00129861 to 0.00129861
Heightened Def Con from 0.00129861 to 0.00129861
Heightened Def Con from 0.00129935 to 0.00129935
Heightened Def Con from 0.00129936 to 0.00129937
Heightened Def Con from 0.00130353 to 0.00130353
Heightened Def Con from 0.00130429 to 0.00130429
Heightened Def Con from 0.00130431 to 0.00130431
Heightened Def Con from 0.00130845 to 0.00130845
Heightened Def Con from 0.00130846 to 0.00130846
Heightened Def Con from 0.00130924 to 0.00130924
Heightened Def Con from 0.00130925 to 0.00130926
Heightened Def Con from 0.00131337 to 0.00131338
Heightened Def Con from 0.00131338 to 0.00131338
Heightened Def Con from 0.00131418 to 0.00131418
Heightened Def Con from 0.00131419 to 0.0013142
Heightened Def Con from 0.0013183 to 0.0013183
Heightened Def Con from 0.00131913 to 0.00131913
Heightened Def Con from 0.00131914 to 0.00131914
Heightened Def Con from 0.00132322 to 0.00132322
Heightened Def Con from 0.00132322 to 0.00132322
Heightened Def Con from 0.00132407 to 0.00132407
Heightened Def Con from 0.00132408 to 0.00132409
Heightened Def Con from 0.00132814 to 0.00132814
Heightened Def Con from 0.00132901 to 0.00132901
Heightened Def Con from 0.00132903 to 0.00132904
Heightened Def Con from 0.00133306 to 0.00133306
Heightened Def Con from 0.00133396 to 0.00133396
Heightened Def Con from 0.00133397 to 0.00133398
Heightened Def Con from 0.00133798 to 0.00133798
Heightened Def Con from 0.00133798 to 0.00133798
Heightened Def Con from 0.00133891 to 0.00133891
Heightened Def Con from 0.00133892 to 0.00133893
Heightened Def Con from 0.00134289 to 0.0013429
Heightened Def Con from 0.0013429 to 0.0013429
Heightened Def Con from 0.00134386 to 0.00134386
Heightened Def Con from 0.00134388 to 0.00134389
Heightened Def Con from 0.00134781 to 0.00134781
Heightened Def Con from 0.00134782 to 0.00134782
Heightened Def Con from 0.00134881 to 0.00134881
Heightened Def Con from 0.00134883 to 0.00134883
Heightened Def Con from 0.00135273 to 0.00135273
Heightened Def Con from 0.00135273 to 0.00135273
Heightened Def Con from 0.00135376 to 0.00135376
Heightened Def Con from 0.00135377 to 0.00135378
Heightened Def Con from 0.00135765 to 0.00135765
Heightened Def Con from 0.00135871 to 0.00135871
Heightened Def Con from 0.00135872 to 0.00135873
Heightened Def Con from 0.00136256 to 0.00136256
Heightened Def Con from 0.00136367 to 0.00136367
Heightened Def Con from 0.00136368 to 0.00136368
Heightened Def Con from 0.00136748 to 0.00136748
Heightened Def Con from 0.00136748 to 0.00136748
Heightened Def Con from 0.00136862 to 0.00136862
Heightened Def Con from 0.00136863 to 0.00136864
Heightened Def Con from 0.00137239 to 0.00137239
Heightened Def Con from 0.00137239 to 0.00137239
Heightened Def Con from 0.00137357 to 0.00137357
Heightened Def Con from 0.00137358 to 0.00137359
Heightened Def Con from 0.00137731 to 0.00137731
Heightened Def Con from 0.00137853 to 0.00137853
Heightened Def Con from 0.00137854 to 0.00137855
Heightened Def Con from 0.00138222 to 0.00138222
Heightened Def Con from 0.00138348 to 0.00138348
Heightened Def Con from 0.00138349 to 0.0013835
Heightened Def Con from 0.00138713 to 0.00138713
Heightened Def Con from 0.00138843 to 0.00138843
Heightened Def Con from 0.00138844 to 0.00138845
Heightened Def Con from 0.00139204 to 0.00139204
Heightened Def Con from 0.00139205 to 0.00139205
Heightened Def Con from 0.00139338 to 0.00139339
Heightened Def Con from 0.00139339 to 0.00139339
Heightened Def Con from 0.0013934 to 0.00139341
Heightened Def Con from 0.00139696 to 0.00139696
Heightened Def Con from 0.00139834 to 0.00139835
Heightened Def Con from 0.00139835 to 0.00139835
Heightened Def Con from 0.00139836 to 0.00139837
Heightened Def Con from 0.00140186 to 0.00140187
Heightened Def Con from 0.00140187 to 0.00140187
Heightened Def Con from 0.0014033 to 0.0014033
Heightened Def Con from 0.0014033 to 0.0014033
Heightened Def Con from 0.00140331 to 0.00140332
Heightened Def Con from 0.00140678 to 0.00140678
Heightened Def Con from 0.00140826 to 0.00140826
Heightened Def Con from 0.00140826 to 0.00140826
Heightened Def Con from 0.00140827 to 0.00140828
Heightened Def Con from 0.00141169 to 0.00141169
Heightened Def Con from 0.00141321 to 0.00141322
Heightened Def Con from 0.00141322 to 0.00141322
Heightened Def Con from 0.00141323 to 0.00141323
Heightened Def Con from 0.0014166 to 0.0014166
Heightened Def Con from 0.0014166 to 0.0014166
Heightened Def Con from 0.00141817 to 0.00141818
Heightened Def Con from 0.00141818 to 0.00141818
Heightened Def Con from 0.00142151 to 0.00142151
Heightened Def Con from 0.00142313 to 0.00142314
Heightened Def Con from 0.00142314 to 0.00142314
Heightened Def Con from 0.00142642 to 0.00142642
Heightened Def Con from 0.00142809 to 0.00142809
Heightened Def Con from 0.0014281 to 0.0014281
Heightened Def Con from 0.00143132 to 0.00143133
Heightened Def Con from 0.00143133 to 0.00143133
Heightened Def Con from 0.00143306 to 0.00143306
Heightened Def Con from 0.00143623 to 0.00143623
Heightened Def Con from 0.00143624 to 0.00143624
Heightened Def Con from 0.00143801 to 0.00143802
Heightened Def Con from 0.00143802 to 0.00143802
Heightened Def Con from 0.00144114 to 0.00144114
Heightened Def Con from 0.00144114 to 0.00144114
Heightened Def Con from 0.00144298 to 0.00144298
Heightened Def Con from 0.00144605 to 0.00144605
Heightened Def Con from 0.00144605 to 0.00144605
Heightened Def Con from 0.00144794 to 0.00144794
Heightened Def Con from 0.00145096 to 0.00145096
Heightened Def Con from 0.00145096 to 0.00145096
Heightened Def Con from 0.0014529 to 0.0014529
Heightened Def Con from 0.00145586 to 0.00145587
Heightened Def Con from 0.00145786 to 0.00145786
Heightened Def Con from 0.00146077 to 0.00146077
Heightened Def Con from 0.00146077 to 0.00146077
Heightened Def Con from 0.00146282 to 0.00146282
Heightened Def Con from 0.00146568 to 0.00146568
Heightened Def Con from 0.00146779 to 0.00146779
Heightened Def Con from 0.00147058 to 0.00147058
Heightened Def Con from 0.00147059 to 0.00147059
Heightened Def Con from 0.00147275 to 0.00147275
Heightened Def Con from 0.00147549 to 0.00147549
Heightened Def Con from 0.00147771 to 0.00147771
Heightened Def Con from 0.0014804 to 0.0014804
Heightened Def Con from 0.0014804 to 0.0014804
Heightened Def Con from 0.00148268 to 0.00148268
Heightened Def Con from 0.00148268 to 0.0014827
Heightened Def Con from 0.0014853 to 0.0014853
Heightened Def Con from 0.00148531 to 0.00148531
Heightened Def Con from 0.00148764 to 0.00148764
Heightened Def Con from 0.00148764 to 0.00148766
Heightened Def Con from 0.00149021 to 0.00149021
Heightened Def Con from 0.00149021 to 0.00149021
Heightened Def Con from 0.0014926 to 0.0014926
Heightened Def Con from 0.0014926 to 0.00149262
Heightened Def Con from 0.00149512 to 0.00149512
Heightened Def Con from 0.00149512 to 0.00149512
Heightened Def Con from 0.00149756 to 0.00149756
Heightened Def Con from 0.00150002 to 0.00150002
Heightened Def Con from 0.00150253 to 0.00150253
Heightened Def Con from 0.00150493 to 0.00150493
Heightened Def Con from 0.00150493 to 0.00150495
Heightened Def Con from 0.00150749 to 0.00150749
Heightened Def Con from 0.00150749 to 0.00150751
Heightened Def Con from 0.00150984 to 0.00150984
Heightened Def Con from 0.00151245 to 0.00151245
Heightened Def Con from 0.00151245 to 0.00151247
Heightened Def Con from 0.00151474 to 0.00151474
Heightened Def Con from 0.00151474 to 0.00151476
Heightened Def Con from 0.00151741 to 0.00151741
Heightened Def Con from 0.00151741 to 0.00151741
Heightened Def Con from 0.00151965 to 0.00151965
Heightened Def Con from 0.00151965 to 0.00151967
Heightened Def Con from 0.00152237 to 0.00152237
Heightened Def Con from 0.00152238 to 0.00152238
Heightened Def Con from 0.00152456 to 0.00152456
Heightened Def Con from 0.00152734 to 0.00152734
Heightened Def Con from 0.00152946 to 0.00152946
Heightened Def Con from 0.0015323 to 0.0015323
Heightened Def Con from 0.00153437 to 0.00153437
Heightened Def Con from 0.00153726 to 0.00153726
Heightened Def Con from 0.00153927 to 0.00153927
Heightened Def Con from 0.00154222 to 0.00154222
Heightened Def Con from 0.00154418 to 0.00154418
Heightened Def Con from 0.00154719 to 0.00154719
Heightened Def Con from 0.00154909 to 0.00154909
Heightened Def Con from 0.00155215 to 0.00155215
Heightened Def Con from 0.001554 to 0.001554
Heightened Def Con from 0.00155711 to 0.00155711
Heightened Def Con from 0.0015589 to 0.0015589
Heightened Def Con from 0.00156207 to 0.00156207
Heightened Def Con from 0.00156207 to 0.00156207
Heightened Def Con from 0.00156381 to 0.00156381
Heightened Def Con from 0.00156381 to 0.00156381
Heightened Def Con from 0.00156703 to 0.00156703
Heightened Def Con from 0.00156872 to 0.00156872
Heightened Def Con from 0.00157199 to 0.00157199
Heightened Def Con from 0.00157362 to 0.00157363
Heightened Def Con from 0.00157363 to 0.00157363
Heightened Def Con from 0.00157695 to 0.00157695
Heightened Def Con from 0.00157854 to 0.00157854
Heightened Def Con from 0.00157855 to 0.00157855
Heightened Def Con from 0.00158191 to 0.00158191
Heightened Def Con from 0.00158345 to 0.00158345
Heightened Def Con from 0.00158346 to 0.00158347
Heightened Def Con from 0.00158687 to 0.00158687
Heightened Def Con from 0.00158687 to 0.00158687
Heightened Def Con from 0.00158836 to 0.00158836
Heightened Def Con from 0.00158837 to 0.00158838
Heightened Def Con from 0.00159182 to 0.00159182
Heightened Def Con from 0.00159327 to 0.00159327
Heightened Def Con from 0.00159328 to 0.00159329
Heightened Def Con from 0.00159678 to 0.00159678
Heightened Def Con from 0.00159818 to 0.00159818
Heightened Def Con from 0.00159819 to 0.0015982
Heightened Def Con from 0.00160174 to 0.00160174
Heightened Def Con from 0.00160309 to 0.00160309
Heightened Def Con from 0.00160309 to 0.00160309
Heightened Def Con from 0.0016031 to 0.00160311
Heightened Def Con from 0.00160669 to 0.00160669
Heightened Def Con from 0.0016067 to 0.0016067
Heightened Def Con from 0.00160799 to 0.001608
Heightened Def Con from 0.001608 to 0.001608
Heightened Def Con from 0.00160801 to 0.00160802
Heightened Def Con from 0.00161165 to 0.00161165
Heightened Def Con from 0.00161291 to 0.00161291
Heightened Def Con from 0.00161291 to 0.00161291
Heightened Def Con from 0.00161292 to 0.00161294
Heightened Def Con from 0.0016166 to 0.00161661
Heightened Def Con from 0.00161661 to 0.00161661
Heightened Def Con from 0.00161782 to 0.00161783
Heightened Def Con from 0.00161783 to 0.00161783
Heightened Def Con from 0.00161784 to 0.00161784
Heightened Def Con from 0.00162156 to 0.00162156
Heightened Def Con from 0.00162274 to 0.00162274
Heightened Def Con from 0.00162275 to 0.00162276
Heightened Def Con from 0.00162651 to 0.00162651
Heightened Def Con from 0.00162765 to 0.00162765
Heightened Def Con from 0.00162765 to 0.00162765
Heightened Def Con from 0.00162766 to 0.00162767
Heightened Def Con from 0.00163147 to 0.00163147
Heightened Def Con from 0.00163147 to 0.00163147
Heightened Def Con from 0.00163256 to 0.00163257
Heightened Def Con from 0.00163257 to 0.00163257
Heightened Def Con from 0.00163258 to 0.00163259
Heightened Def Con from 0.00163642 to 0.00163642
Heightened Def Con from 0.00163642 to 0.00163642
Heightened Def Con from 0.00163748 to 0.00163748
Heightened Def Con from 0.00163749 to 0.0016375
Heightened Def Con from 0.00164137 to 0.00164137
Heightened Def Con from 0.00164239 to 0.0016424
Heightened Def Con from 0.0016424 to 0.0016424
Heightened Def Con from 0.00164241 to 0.00164242
Heightened Def Con from 0.00164632 to 0.00164632
Heightened Def Con from 0.00164731 to 0.00164731
Heightened Def Con from 0.00164731 to 0.00164732
Heightened Def Con from 0.00164733 to 0.00164733
Heightened Def Con from 0.00165127 to 0.00165128
Heightened Def Con from 0.00165128 to 0.00165128
Heightened Def Con from 0.00165223 to 0.00165223
Heightened Def Con from 0.00165223 to 0.00165223
Heightened Def Con from 0.00165224 to 0.00165225
Heightened Def Con from 0.00165622 to 0.00165623
Heightened Def Con from 0.00165623 to 0.00165623
Heightened Def Con from 0.00165714 to 0.00165715
Heightened Def Con from 0.00165715 to 0.00165715
Heightened Def Con from 0.00165716 to 0.00165717
Heightened Def Con from 0.00166117 to 0.00166118
Heightened Def Con from 0.00166118 to 0.00166118
Heightened Def Con from 0.00166206 to 0.00166207
Heightened Def Con from 0.00166207 to 0.00166207
Heightened Def Con from 0.00166208 to 0.00166208
Heightened Def Con from 0.00166612 to 0.00166612
Heightened Def Con from 0.00166612 to 0.00166612
Heightened Def Con from 0.00166699 to 0.00166699
Heightened Def Con from 0.001667 to 0.00166701
Heightened Def Con from 0.00167107 to 0.00167107
Heightened Def Con from 0.0016719 to 0.0016719
Heightened Def Con from 0.0016719 to 0.00167191
Heightened Def Con from 0.00167192 to 0.00167192
Heightened Def Con from 0.00167601 to 0.00167601
Heightened Def Con from 0.00167682 to 0.00167683
Heightened Def Con from 0.00167683 to 0.00167683
Heightened Def Con from 0.00167684 to 0.00167684
Heightened Def Con from 0.00168096 to 0.00168096
Heightened Def Con from 0.00168175 to 0.00168175
Heightened Def Con from 0.00168176 to 0.00168176
Heightened Def Con from 0.0016859 to 0.00168591
Heightened Def Con from 0.00168591 to 0.00168591
Heightened Def Con from 0.00168666 to 0.00168667
Heightened Def Con from 0.00168667 to 0.00168667
Heightened Def Con from 0.00168668 to 0.00168669
Heightened Def Con from 0.00169085 to 0.00169085
Heightened Def Con from 0.00169159 to 0.00169159
Heightened Def Con from 0.0016916 to 0.00169161
Heightened Def Con from 0.00169579 to 0.00169579
Heightened Def Con from 0.0016958 to 0.0016958
Heightened Def Con from 0.00169651 to 0.00169651
Heightened Def Con from 0.00169653 to 0.00169653
Heightened Def Con from 0.00170073 to 0.00170073
Heightened Def Con from 0.00170144 to 0.00170144
Heightened Def Con from 0.00170145 to 0.00170146
Heightened Def Con from 0.00170567 to 0.00170568
Heightened Def Con from 0.00170636 to 0.00170636
Heightened Def Con from 0.00170636 to 0.00170636
Heightened Def Con from 0.00170637 to 0.00170638
Heightened Def Con from 0.00171062 to 0.00171062
Heightened Def Con from 0.00171128 to 0.00171129
Heightened Def Con from 0.00171129 to 0.00171129
Heightened Def Con from 0.0017113 to 0.00171131
Heightened Def Con from 0.00171555 to 0.00171555
Heightened Def Con from 0.00171555 to 0.00171555
Heightened Def Con from 0.00171621 to 0.00171621
Heightened Def Con from 0.00171621 to 0.00171621
Heightened Def Con from 0.00171623 to 0.00171623
Heightened Def Con from 0.00172049 to 0.00172049
Heightened Def Con from 0.00172114 to 0.00172114
Heightened Def Con from 0.00172115 to 0.00172116
Heightened Def Con from 0.00172543 to 0.00172543
Heightened Def Con from 0.00172607 to 0.00172607
Heightened Def Con from 0.00172607 to 0.00172607
Heightened Def Con from 0.00172608 to 0.00172609
Heightened Def Con from 0.00173036 to 0.00173036
Heightened Def Con from 0.00173037 to 0.00173037
Heightened Def Con from 0.001731 to 0.001731
Heightened Def Con from 0.00173101 to 0.00173102
Heightened Def Con from 0.0017353 to 0.0017353
Heightened Def Con from 0.00173592 to 0.00173593
Heightened Def Con from 0.00173593 to 0.00173593
Heightened Def Con from 0.00173594 to 0.00173594
Heightened Def Con from 0.00174024 to 0.00174024
Heightened Def Con from 0.00174085 to 0.00174086
Heightened Def Con from 0.00174086 to 0.00174086
Heightened Def Con from 0.00174087 to 0.00174088
Heightened Def Con from 0.00174517 to 0.00174517
Heightened Def Con from 0.00174578 to 0.00174579
Heightened Def Con from 0.00174579 to 0.00174579
Heightened Def Con from 0.0017458 to 0.00174581
Heightened Def Con from 0.0017501 to 0.0017501
Heightened Def Con from 0.0017501 to 0.0017501
Heightened Def Con from 0.00175072 to 0.00175072
Heightened Def Con from 0.00175072 to 0.00175072
Heightened Def Con from 0.00175073 to 0.00175074
Heightened Def Con from 0.00175504 to 0.00175504
Heightened Def Con from 0.00175565 to 0.00175565
Heightened Def Con from 0.00175565 to 0.00175565
Heightened Def Con from 0.00175567 to 0.00175567
Heightened Def Con from 0.00175996 to 0.00175996
Heightened Def Con from 0.00176058 to 0.00176059
Heightened Def Con from 0.00176059 to 0.00176059
Heightened Def Con from 0.0017606 to 0.00176061
Heightened Def Con from 0.0017649 to 0.0017649
Heightened Def Con from 0.00176552 to 0.00176552
Heightened Def Con from 0.00176553 to 0.00176554
Heightened Def Con from 0.00176982 to 0.00176982
Heightened Def Con from 0.00177045 to 0.00177046
Heightened Def Con from 0.00177046 to 0.00177046
Heightened Def Con from 0.00177047 to 0.00177047
Heightened Def Con from 0.00177476 to 0.00177476
Heightened Def Con from 0.00177539 to 0.00177539
Heightened Def Con from 0.0017754 to 0.00177541
Heightened Def Con from 0.00177968 to 0.00177968
Heightened Def Con from 0.00178033 to 0.00178033
Heightened Def Con from 0.00178033 to 0.00178033
Heightened Def Con from 0.00178034 to 0.00178035
Heightened Def Con from 0.00178461 to 0.00178461
Heightened Def Con from 0.00178526 to 0.00178527
Heightened Def Con from 0.00178527 to 0.00178527
Heightened Def Con from 0.00178953 to 0.00178953
Heightened Def Con from 0.00179021 to 0.00179021
Heightened Def Con from 0.00179022 to 0.00179022
Heightened Def Con from 0.00179446 to 0.00179446
Heightened Def Con from 0.00179446 to 0.00179446
Heightened Def Con from 0.00179515 to 0.00179515
Heightened Def Con from 0.00179516 to 0.00179516
Heightened Def Con from 0.00179938 to 0.00179938
Heightened Def Con from 0.00180009 to 0.00180009
Heightened Def Con from 0.0018001 to 0.0018001
Heightened Def Con from 0.0018043 to 0.0018043
Heightened Def Con from 0.00180502 to 0.00180503
Heightened Def Con from 0.00180503 to 0.00180503
Heightened Def Con from 0.00180504 to 0.00180504
Heightened Def Con from 0.00180922 to 0.00180922
Heightened Def Con from 0.00180996 to 0.00180997
Heightened Def Con from 0.00180997 to 0.00180997
Heightened Def Con from 0.00180998 to 0.00180999
Heightened Def Con from 0.00181415 to 0.00181415
Heightened Def Con from 0.00181491 to 0.00181491
Heightened Def Con from 0.00181491 to 0.00181491
Heightened Def Con from 0.00181492 to 0.00181493
Heightened Def Con from 0.00181907 to 0.00181907
Heightened Def Con from 0.00181985 to 0.00181985
Heightened Def Con from 0.00181985 to 0.00181985
Heightened Def Con from 0.00181987 to 0.00181987
Heightened Def Con from 0.00182398 to 0.00182398
Heightened Def Con from 0.00182479 to 0.0018248
Heightened Def Con from 0.0018248 to 0.0018248
Heightened Def Con from 0.00182481 to 0.00182482
Heightened Def Con from 0.0018289 to 0.00182891
Heightened Def Con from 0.00182891 to 0.00182891
Heightened Def Con from 0.00182974 to 0.00182974
Heightened Def Con from 0.00182974 to 0.00182974
Heightened Def Con from 0.00182975 to 0.00182976
Heightened Def Con from 0.00183382 to 0.00183382
Heightened Def Con from 0.00183382 to 0.00183382
Heightened Def Con from 0.00183469 to 0.00183469
Heightened Def Con from 0.0018347 to 0.00183471
Heightened Def Con from 0.00183873 to 0.00183874
Heightened Def Con from 0.00183874 to 0.00183874
Heightened Def Con from 0.00183963 to 0.00183963
Heightened Def Con from 0.00183963 to 0.00183963
Heightened Def Con from 0.00183965 to 0.00183965
Heightened Def Con from 0.00184365 to 0.00184365
Heightened Def Con from 0.00184365 to 0.00184365
Heightened Def Con from 0.00184458 to 0.00184458
Heightened Def Con from 0.00184459 to 0.0018446
Heightened Def Con from 0.00184953 to 0.00184953
Heightened Def Con from 0.00184954 to 0.00184955
Heightened Def Con from 0.00185348 to 0.00185348
Heightened Def Con from 0.00185447 to 0.00185448
Heightened Def Con from 0.00185448 to 0.00185448
Heightened Def Con from 0.00185449 to 0.0018545
Heightened Def Con from 0.0018584 to 0.0018584
Heightened Def Con from 0.00185942 to 0.00185943
Heightened Def Con from 0.00185943 to 0.00185943
Heightened Def Con from 0.00185944 to 0.00185945
Heightened Def Con from 0.00186331 to 0.00186331
Heightened Def Con from 0.00186437 to 0.00186437
Heightened Def Con from 0.00186438 to 0.00186438
Heightened Def Con from 0.00186439 to 0.00186439
Heightened Def Con from 0.00186822 to 0.00186822
Heightened Def Con from 0.00186932 to 0.00186932
Heightened Def Con from 0.00186933 to 0.00186933
Heightened Def Con from 0.00186934 to 0.00186934
Heightened Def Con from 0.00187314 to 0.00187314
Heightened Def Con from 0.00187427 to 0.00187428
Heightened Def Con from 0.00187428 to 0.00187428
Heightened Def Con from 0.00187429 to 0.00187429
Heightened Def Con from 0.00187804 to 0.00187804
Heightened Def Con from 0.00187922 to 0.00187923
Heightened Def Con from 0.00187923 to 0.00187923
Heightened Def Con from 0.00187924 to 0.00187925
Heightened Def Con from 0.00188295 to 0.00188295
Heightened Def Con from 0.00188296 to 0.00188296
Heightened Def Con from 0.00188418 to 0.00188418
Heightened Def Con from 0.00188418 to 0.00188418
Heightened Def Con from 0.00188419 to 0.0018842
Heightened Def Con from 0.00188787 to 0.00188787
Heightened Def Con from 0.00188913 to 0.00188913
Heightened Def Con from 0.00188913 to 0.00188913
Heightened Def Con from 0.00188914 to 0.00188915
Heightened Def Con from 0.00189277 to 0.00189277
Heightened Def Con from 0.00189278 to 0.00189278
Heightened Def Con from 0.00189408 to 0.00189408
Heightened Def Con from 0.00189408 to 0.00189409
Heightened Def Con from 0.0018941 to 0.00189411
Heightened Def Con from 0.00189768 to 0.00189768
Heightened Def Con from 0.00189903 to 0.00189904
Heightened Def Con from 0.00189904 to 0.00189904
Heightened Def Con from 0.00189905 to 0.00189906
Heightened Def Con from 0.00190259 to 0.00190259
Heightened Def Con from 0.00190399 to 0.00190399
Heightened Def Con from 0.00190399 to 0.00190399
Heightened Def Con from 0.001904 to 0.00190401
Heightened Def Con from 0.00190749 to 0.0019075
Heightened Def Con from 0.0019075 to 0.0019075
Heightened Def Con from 0.00190895 to 0.00190895
Heightened Def Con from 0.00190896 to 0.00190897
Heightened Def Con from 0.0019124 to 0.00191241
Heightened Def Con from 0.00191241 to 0.00191241
Heightened Def Con from 0.0019139 to 0.0019139
Heightened Def Con from 0.00191391 to 0.00191392
Heightened Def Con from 0.00191731 to 0.00191731
Heightened Def Con from 0.00191886 to 0.00191886
Heightened Def Con from 0.00191887 to 0.00191887
Heightened Def Con from 0.00192222 to 0.00192222
Heightened Def Con from 0.00192222 to 0.00192222
Heightened Def Con from 0.00192381 to 0.00192381
Heightened Def Con from 0.00192381 to 0.00192381
Heightened Def Con from 0.00192382 to 0.00192383
Heightened Def Con from 0.00192712 to 0.00192712
Heightened Def Con from 0.00192713 to 0.00192713
Heightened Def Con from 0.00192876 to 0.00192877
Heightened Def Con from 0.00192877 to 0.00192877
Heightened Def Con from 0.00193203 to 0.00193203
Heightened Def Con from 0.00193203 to 0.00193203
Heightened Def Con from 0.00193372 to 0.00193372
Heightened Def Con from 0.00193373 to 0.00193373
Heightened Def Con from 0.00193693 to 0.00193693
Heightened Def Con from 0.00193868 to 0.00193868
Heightened Def Con from 0.00193868 to 0.00193868
Heightened Def Con from 0.00194184 to 0.00194184
Heightened Def Con from 0.00194364 to 0.00194364
Heightened Def Con from 0.00194675 to 0.00194675
Heightened Def Con from 0.0019486 to 0.0019486
Heightened Def Con from 0.00195165 to 0.00195165
Heightened Def Con from 0.00195356 to 0.00195356
Heightened Def Con from 0.00195655 to 0.00195655
Heightened Def Con from 0.00195851 to 0.00195851
Heightened Def Con from 0.00196145 to 0.00196145
Heightened Def Con from 0.00196347 to 0.00196347
Heightened Def Con from 0.00196843 to 0.00196843
Heightened Def Con from 0.00197126 to 0.00197126
Heightened Def Con from 0.00197339 to 0.00197339
Heightened Def Con from 0.00197616 to 0.00197616
Heightened Def Con from 0.00197835 to 0.00197835
Heightened Def Con from 0.00198106 to 0.00198106
Heightened Def Con from 0.0019833 to 0.0019833
Heightened Def Con from 0.00198331 to 0.00198333
Heightened Def Con from 0.00198597 to 0.00198597
Heightened Def Con from 0.00198597 to 0.00198597
[...]
Heightened Def Con from 0.00447438 to 0.00447438
Heightened Def Con from 0.00447657 to 0.00447657
Heightened Def Con from 0.00447928 to 0.00447928
Heightened Def Con from 0.00448153 to 0.00448153
Heightened Def Con from 0.00448154 to 0.00448155
Heightened Def Con from 0.00448419 to 0.00448419
Heightened Def Con from 0.0044865 to 0.0044865
Heightened Def Con from 0.00448909 to 0.00448909
Heightened Def Con from 0.0044891 to 0.0044891
Heightened Def Con from 0.00449146 to 0.00449146
Heightened Def Con from 0.00449146 to 0.00449148
Heightened Def Con from 0.004494 to 0.004494
Heightened Def Con from 0.00449642 to 0.00449642
Heightened Def Con from 0.00449891 to 0.00449891
Heightened Def Con from 0.00449891 to 0.00449891
Heightened Def Con from 0.00450139 to 0.00450139
Heightened Def Con from 0.00450381 to 0.00450381
Heightened Def Con from 0.00450635 to 0.00450635
Heightened Def Con from 0.00450872 to 0.00450872
Heightened Def Con from 0.00450872 to 0.00450874
Heightened Def Con from 0.00451131 to 0.00451131
Heightened Def Con from 0.00451363 to 0.00451363
Heightened Def Con from 0.00451627 to 0.00451627
Heightened Def Con from 0.00451627 to 0.00451629
Heightened Def Con from 0.00451853 to 0.00451853
Heightened Def Con from 0.00451854 to 0.00451856
Heightened Def Con from 0.00452124 to 0.00452124
Heightened Def Con from 0.00452124 to 0.00452124
Heightened Def Con from 0.00452344 to 0.00452344
Heightened Def Con from 0.00452344 to 0.00452346
Heightened Def Con from 0.0045262 to 0.0045262
Heightened Def Con from 0.00452835 to 0.00452835
Heightened Def Con from 0.00453116 to 0.00453116
Heightened Def Con from 0.00453116 to 0.00453116
Heightened Def Con from 0.00453325 to 0.00453325
Heightened Def Con from 0.00453612 to 0.00453612
Heightened Def Con from 0.00453816 to 0.00453816
Heightened Def Con from 0.00454109 to 0.00454109
Heightened Def Con from 0.00454307 to 0.00454307
Heightened Def Con from 0.00454605 to 0.00454605
Heightened Def Con from 0.00454797 to 0.00454797
Heightened Def Con from 0.00455101 to 0.00455101
Heightened Def Con from 0.00455288 to 0.00455288
Heightened Def Con from 0.00455597 to 0.00455597
Heightened Def Con from 0.00456093 to 0.00456093
Heightened Def Con from 0.0045627 to 0.0045627
Heightened Def Con from 0.00456589 to 0.00456589
Heightened Def Con from 0.0045676 to 0.0045676
Heightened Def Con from 0.00457085 to 0.00457085
Heightened Def Con from 0.00457251 to 0.00457251
Heightened Def Con from 0.0045758 to 0.00457581
Heightened Def Con from 0.00457581 to 0.00457581
Heightened Def Con from 0.00457581 to 0.00457581
Heightened Def Con from 0.00457742 to 0.00457742
Heightened Def Con from 0.00457742 to 0.00457742
Heightened Def Con from 0.00457743 to 0.00457744
Heightened Def Con from 0.00458077 to 0.00458077
Heightened Def Con from 0.00458077 to 0.00458077
Heightened Def Con from 0.00458232 to 0.00458233
Heightened Def Con from 0.00458233 to 0.00458233
Heightened Def Con from 0.00458234 to 0.00458235
Heightened Def Con from 0.00458573 to 0.00458573
Heightened Def Con from 0.00458723 to 0.00458724
Heightened Def Con from 0.00458724 to 0.00458724
Heightened Def Con from 0.00458725 to 0.00458726
Heightened Def Con from 0.00459069 to 0.00459069
Heightened Def Con from 0.00459215 to 0.00459215
Heightened Def Con from 0.00459216 to 0.00459217
Heightened Def Con from 0.00459565 to 0.00459565
Heightened Def Con from 0.00459706 to 0.00459706
Heightened Def Con from 0.00459707 to 0.00459708
Heightened Def Con from 0.0046006 to 0.0046006
Heightened Def Con from 0.0046006 to 0.0046006
Heightened Def Con from 0.00460197 to 0.00460197
Heightened Def Con from 0.00460197 to 0.00460197
Heightened Def Con from 0.00460198 to 0.00460199
Heightened Def Con from 0.00460556 to 0.00460556
Heightened Def Con from 0.00460688 to 0.00460688
Heightened Def Con from 0.00460688 to 0.00460688
Heightened Def Con from 0.00460689 to 0.00460691
Heightened Def Con from 0.00461051 to 0.00461051
Heightened Def Con from 0.00461179 to 0.00461179
Heightened Def Con from 0.0046118 to 0.0046118
Heightened Def Con from 0.00461181 to 0.00461182
Heightened Def Con from 0.00461547 to 0.00461547
Heightened Def Con from 0.0046167 to 0.00461671
Heightened Def Con from 0.00461671 to 0.00461671
Heightened Def Con from 0.00461672 to 0.00461673
Heightened Def Con from 0.00462043 to 0.00462043
Heightened Def Con from 0.00462162 to 0.00462162
Heightened Def Con from 0.00462163 to 0.00462164
Heightened Def Con from 0.00462537 to 0.00462538
Heightened Def Con from 0.00462538 to 0.00462538
Heightened Def Con from 0.00462653 to 0.00462653
Heightened Def Con from 0.00462654 to 0.00462654
Heightened Def Con from 0.00462655 to 0.00462656
Heightened Def Con from 0.00463033 to 0.00463033
Heightened Def Con from 0.00463144 to 0.00463145
Heightened Def Con from 0.00463145 to 0.00463145
Heightened Def Con from 0.00463146 to 0.00463147
Heightened Def Con from 0.00463529 to 0.00463529
Heightened Def Con from 0.00463634 to 0.00463634
Heightened Def Con from 0.00463636 to 0.00463636
Heightened Def Con from 0.00463636 to 0.00463636
Heightened Def Con from 0.00463637 to 0.00463638
Heightened Def Con from 0.00464024 to 0.00464024
Heightened Def Con from 0.00464127 to 0.00464128
Heightened Def Con from 0.00464128 to 0.00464128
Heightened Def Con from 0.00464129 to 0.0046413
Heightened Def Con from 0.00464519 to 0.00464519
Heightened Def Con from 0.00464619 to 0.0046462
Heightened Def Con from 0.0046462 to 0.0046462
Heightened Def Con from 0.00464621 to 0.00464621
Heightened Def Con from 0.00465013 to 0.00465014
Heightened Def Con from 0.00465014 to 0.00465014
Heightened Def Con from 0.00465111 to 0.00465111
Heightened Def Con from 0.00465111 to 0.00465111
Heightened Def Con from 0.00465112 to 0.00465113
Heightened Def Con from 0.00465509 to 0.00465509
Heightened Def Con from 0.00465509 to 0.00465509
Heightened Def Con from 0.00465603 to 0.00465603
Heightened Def Con from 0.00465604 to 0.00465605
Heightened Def Con from 0.00466003 to 0.00466004
Heightened Def Con from 0.00466004 to 0.00466004
Heightened Def Con from 0.00466094 to 0.00466095
Heightened Def Con from 0.00466095 to 0.00466095
Heightened Def Con from 0.00466096 to 0.00466097
Heightened Def Con from 0.00466499 to 0.00466499
Heightened Def Con from 0.00466586 to 0.00466587
Heightened Def Con from 0.00466587 to 0.00466587
Heightened Def Con from 0.00466588 to 0.00466588
Heightened Def Con from 0.00466993 to 0.00466993
Heightened Def Con from 0.00467079 to 0.00467079
Heightened Def Con from 0.0046708 to 0.0046708
Heightened Def Con from 0.00467488 to 0.00467488
Heightened Def Con from 0.0046757 to 0.0046757
Heightened Def Con from 0.00467571 to 0.00467571
Heightened Def Con from 0.00467572 to 0.00467572
Heightened Def Con from 0.00467982 to 0.00467983
Heightened Def Con from 0.00468062 to 0.00468063
Heightened Def Con from 0.00468063 to 0.00468063
Heightened Def Con from 0.00468064 to 0.00468064
Heightened Def Con from 0.00468477 to 0.00468477
Heightened Def Con from 0.00468554 to 0.00468555
Heightened Def Con from 0.00468555 to 0.00468555
Heightened Def Con from 0.00468556 to 0.00468557
Heightened Def Con from 0.00468971 to 0.00468971
Heightened Def Con from 0.00469046 to 0.00469047
Heightened Def Con from 0.00469047 to 0.00469047
Heightened Def Con from 0.00469048 to 0.00469049
Heightened Def Con from 0.00469465 to 0.00469466
Heightened Def Con from 0.00469539 to 0.00469539
Heightened Def Con from 0.00469539 to 0.00469539
Heightened Def Con from 0.0046954 to 0.00469541
Heightened Def Con from 0.0046996 to 0.0046996
Heightened Def Con from 0.0046996 to 0.0046996
Heightened Def Con from 0.00470031 to 0.00470031
Heightened Def Con from 0.00470032 to 0.00470032
Heightened Def Con from 0.00470033 to 0.00470033
Heightened Def Con from 0.00470454 to 0.00470457
Heightened Def Con from 0.00470524 to 0.00470524
Heightened Def Con from 0.00470524 to 0.00470524
Heightened Def Con from 0.00470525 to 0.00470526
Heightened Def Con from 0.00470948 to 0.00470948
Heightened Def Con from 0.00470948 to 0.00470948
Heightened Def Con from 0.00471017 to 0.00471017
Heightened Def Con from 0.00471018 to 0.00471018
Heightened Def Con from 0.00471442 to 0.00471442
Heightened Def Con from 0.00471509 to 0.00471509
Heightened Def Con from 0.0047151 to 0.00471511
Heightened Def Con from 0.00471936 to 0.00471936
Heightened Def Con from 0.00472002 to 0.00472002
Heightened Def Con from 0.00472003 to 0.00472004
Heightened Def Con from 0.0047243 to 0.0047243
Heightened Def Con from 0.0047243 to 0.0047243
Heightened Def Con from 0.00472494 to 0.00472495
Heightened Def Con from 0.00472495 to 0.00472495
Heightened Def Con from 0.00472496 to 0.00472496
Heightened Def Con from 0.00472923 to 0.00472923
Heightened Def Con from 0.00472923 to 0.00472923
Heightened Def Con from 0.00472988 to 0.00472988
Heightened Def Con from 0.00472989 to 0.00472989
Heightened Def Con from 0.00473417 to 0.00473417
Heightened Def Con from 0.00473417 to 0.00473417
Heightened Def Con from 0.0047348 to 0.0047348
Heightened Def Con from 0.00473481 to 0.00473481
Heightened Def Con from 0.00473482 to 0.00473482
Heightened Def Con from 0.0047391 to 0.0047391
Heightened Def Con from 0.00473973 to 0.00473973
Heightened Def Con from 0.00473974 to 0.00473974
Heightened Def Con from 0.00473975 to 0.00473975
Heightened Def Con from 0.00474404 to 0.00474404
Heightened Def Con from 0.00474404 to 0.00474404
Heightened Def Con from 0.00474467 to 0.00474467
Heightened Def Con from 0.00474468 to 0.00474468
Heightened Def Con from 0.00474897 to 0.00474897
Heightened Def Con from 0.00474959 to 0.0047496
Heightened Def Con from 0.00474961 to 0.00474962
Heightened Def Con from 0.0047539 to 0.0047539
Heightened Def Con from 0.00475453 to 0.00475453
Heightened Def Con from 0.00475453 to 0.00475453
Heightened Def Con from 0.00475454 to 0.00475455
Heightened Def Con from 0.00475884 to 0.00475884
Heightened Def Con from 0.00475947 to 0.00475947
Heightened Def Con from 0.00475948 to 0.00475948
Heightened Def Con from 0.00476376 to 0.00476376
Heightened Def Con from 0.00476377 to 0.00476377
Heightened Def Con from 0.00476439 to 0.0047644
Heightened Def Con from 0.0047644 to 0.0047644
Heightened Def Con from 0.00476441 to 0.00476442
Heightened Def Con from 0.0047687 to 0.0047687
Heightened Def Con from 0.00476933 to 0.00476933
Heightened Def Con from 0.00476933 to 0.00476933
Heightened Def Con from 0.00476934 to 0.00476935
Heightened Def Con from 0.00477363 to 0.00477363
Heightened Def Con from 0.00477427 to 0.00477427
Heightened Def Con from 0.00477428 to 0.00477429
Heightened Def Con from 0.00477855 to 0.00477855
Heightened Def Con from 0.00477921 to 0.00477921
Heightened Def Con from 0.00477922 to 0.00477922
Heightened Def Con from 0.00478348 to 0.00478348
Heightened Def Con from 0.00478414 to 0.00478414
Heightened Def Con from 0.00478414 to 0.00478414
Heightened Def Con from 0.00478415 to 0.00478416
Heightened Def Con from 0.0047884 to 0.0047884
Heightened Def Con from 0.0047884 to 0.0047884
Heightened Def Con from 0.00478908 to 0.00478908
Heightened Def Con from 0.00478908 to 0.00478908
Heightened Def Con from 0.00478909 to 0.0047891
Heightened Def Con from 0.00479333 to 0.00479333
Heightened Def Con from 0.00479402 to 0.00479402
Heightened Def Con from 0.00479403 to 0.00479404
Heightened Def Con from 0.00479825 to 0.00479825
Heightened Def Con from 0.00479896 to 0.00479896
Heightened Def Con from 0.00479896 to 0.00479896
Heightened Def Con from 0.00479897 to 0.00479898
Heightened Def Con from 0.00480318 to 0.00480318
Heightened Def Con from 0.0048039 to 0.0048039
Heightened Def Con from 0.0048039 to 0.0048039
Heightened Def Con from 0.00480391 to 0.00480392
Heightened Def Con from 0.0048081 to 0.0048081
Heightened Def Con from 0.00480884 to 0.00480884
Heightened Def Con from 0.00480884 to 0.00480884
Heightened Def Con from 0.00480885 to 0.00480886
Heightened Def Con from 0.00481301 to 0.00481301
Heightened Def Con from 0.00481378 to 0.00481378
Heightened Def Con from 0.00481379 to 0.00481379
Heightened Def Con from 0.0048138 to 0.0048138
Heightened Def Con from 0.00481793 to 0.00481794
Heightened Def Con from 0.00481794 to 0.00481794
Heightened Def Con from 0.00481872 to 0.00481873
Heightened Def Con from 0.00481873 to 0.00481873
Heightened Def Con from 0.00481874 to 0.00481875
Heightened Def Con from 0.00482286 to 0.00482286
Heightened Def Con from 0.00482286 to 0.00482286
Heightened Def Con from 0.00482367 to 0.00482367
Heightened Def Con from 0.00482367 to 0.00482367
Heightened Def Con from 0.00482368 to 0.00482369
Heightened Def Con from 0.00482777 to 0.00482777
Heightened Def Con from 0.00482778 to 0.00482778
Heightened Def Con from 0.00482862 to 0.00482862
Heightened Def Con from 0.00482863 to 0.00482863
Heightened Def Con from 0.00483269 to 0.00483269
Heightened Def Con from 0.00483269 to 0.00483269
Heightened Def Con from 0.00483356 to 0.00483356
Heightened Def Con from 0.00483357 to 0.00483358
Heightened Def Con from 0.00483761 to 0.00483761
Heightened Def Con from 0.00483761 to 0.00483761
Heightened Def Con from 0.0048385 to 0.00483851
Heightened Def Con from 0.00483851 to 0.00483851
Heightened Def Con from 0.00483852 to 0.00483853
Heightened Def Con from 0.00484253 to 0.00484253
Heightened Def Con from 0.00484345 to 0.00484345
Heightened Def Con from 0.00484345 to 0.00484345
Heightened Def Con from 0.00484347 to 0.00484347
Heightened Def Con from 0.00484744 to 0.00484744
Heightened Def Con from 0.00484744 to 0.00484744
Heightened Def Con from 0.0048484 to 0.0048484
Heightened Def Con from 0.0048484 to 0.0048484
Heightened Def Con from 0.00484841 to 0.00484842
Heightened Def Con from 0.00485235 to 0.00485236
Heightened Def Con from 0.00485236 to 0.00485236
Heightened Def Con from 0.00485334 to 0.00485335
Heightened Def Con from 0.00485335 to 0.00485335
Heightened Def Con from 0.00485336 to 0.00485337
Heightened Def Con from 0.00485727 to 0.00485727
Heightened Def Con from 0.00485727 to 0.00485727
Heightened Def Con from 0.00485829 to 0.0048583
Heightened Def Con from 0.0048583 to 0.0048583
Heightened Def Con from 0.00485831 to 0.00485832
Heightened Def Con from 0.00486218 to 0.00486218
Heightened Def Con from 0.00486324 to 0.00486325
Heightened Def Con from 0.00486325 to 0.00486325
Heightened Def Con from 0.00486326 to 0.00486327
Heightened Def Con from 0.00486709 to 0.00486709
Heightened Def Con from 0.00486709 to 0.00486709
Heightened Def Con from 0.0048682 to 0.0048682
Heightened Def Con from 0.00486821 to 0.00486822
Heightened Def Con from 0.004872 to 0.004872
Heightened Def Con from 0.00487314 to 0.00487315
Heightened Def Con from 0.00487315 to 0.00487315
Heightened Def Con from 0.00487316 to 0.00487317
Heightened Def Con from 0.00487691 to 0.00487691
Heightened Def Con from 0.00487692 to 0.00487692
Heightened Def Con from 0.00487809 to 0.0048781
Heightened Def Con from 0.0048781 to 0.0048781
Heightened Def Con from 0.00487811 to 0.00487812
Heightened Def Con from 0.00488183 to 0.00488183
Heightened Def Con from 0.00488305 to 0.00488305
Heightened Def Con from 0.00488306 to 0.00488307
Heightened Def Con from 0.004888 to 0.004888
Heightened Def Con from 0.004888 to 0.004888
Heightened Def Con from 0.00488801 to 0.00488803
Heightened Def Con from 0.00489165 to 0.00489165
Heightened Def Con from 0.00489165 to 0.00489165
Heightened Def Con from 0.00489295 to 0.00489296
Heightened Def Con from 0.00489296 to 0.00489296
Heightened Def Con from 0.00489297 to 0.00489298
Heightened Def Con from 0.00489656 to 0.00489656
Heightened Def Con from 0.0048979 to 0.00489791
Heightened Def Con from 0.00489791 to 0.00489791
Heightened Def Con from 0.00489792 to 0.00489793
Heightened Def Con from 0.00490147 to 0.00490147
Heightened Def Con from 0.00490286 to 0.00490286
Heightened Def Con from 0.00490286 to 0.00490286
Heightened Def Con from 0.00490288 to 0.00490288
Heightened Def Con from 0.00490637 to 0.00490637
Heightened Def Con from 0.00490637 to 0.00490637
Heightened Def Con from 0.00490782 to 0.00490782
Heightened Def Con from 0.00490783 to 0.00490784
Heightened Def Con from 0.00491128 to 0.00491128
Heightened Def Con from 0.00491277 to 0.00491277
Heightened Def Con from 0.00491277 to 0.00491277
Heightened Def Con from 0.00491278 to 0.00491279
Heightened Def Con from 0.00491619 to 0.00491619
Heightened Def Con from 0.00491773 to 0.00491773
Heightened Def Con from 0.00491774 to 0.00491775
Heightened Def Con from 0.00492109 to 0.00492109
Heightened Def Con from 0.00492109 to 0.00492109
Heightened Def Con from 0.00492268 to 0.00492268
Heightened Def Con from 0.00492268 to 0.00492268
Heightened Def Con from 0.00492269 to 0.0049227
Heightened Def Con from 0.004926 to 0.004926
Heightened Def Con from 0.00492763 to 0.00492764
Heightened Def Con from 0.00492764 to 0.00492764
Heightened Def Con from 0.0049309 to 0.0049309
Heightened Def Con from 0.0049326 to 0.0049326
Heightened Def Con from 0.00493581 to 0.00493581
Heightened Def Con from 0.00493755 to 0.00493755
Heightened Def Con from 0.00494071 to 0.00494071
Heightened Def Con from 0.00494251 to 0.00494251
Heightened Def Con from 0.00494562 to 0.00494562
Heightened Def Con from 0.00494562 to 0.00494562
Heightened Def Con from 0.00494747 to 0.00494747
Heightened Def Con from 0.00495052 to 0.00495052
Heightened Def Con from 0.00495052 to 0.00495052
Heightened Def Con from 0.00495243 to 0.00495243
Heightened Def Con from 0.00495542 to 0.00495542
Heightened Def Con from 0.00495738 to 0.00495738
Heightened Def Con from 0.00496032 to 0.00496033
Heightened Def Con from 0.00496234 to 0.00496234
Heightened Def Con from 0.00496523 to 0.00496523
Heightened Def Con from 0.00496523 to 0.00496523
Heightened Def Con from 0.0049673 to 0.0049673
Heightened Def Con from 0.00497013 to 0.00497013
Heightened Def Con from 0.00497226 to 0.00497226
Heightened Def Con from 0.00497503 to 0.00497503
Heightened Def Con from 0.00497504 to 0.00497504
Heightened Def Con from 0.00497722 to 0.00497722
Heightened Def Con from 0.00497722 to 0.00497724
Heightened Def Con from 0.00497994 to 0.00497994
Heightened Def Con from 0.00497994 to 0.00497994
Heightened Def Con from 0.00498218 to 0.00498218
Heightened Def Con from 0.00498218 to 0.0049822
Heightened Def Con from 0.00498484 to 0.00498484
Heightened Def Con from 0.00498713 to 0.00498713
Heightened Def Con from 0.00498975 to 0.00498975
Heightened Def Con from 0.00498975 to 0.00498977
Heightened Def Con from 0.00499209 to 0.00499209
Heightened Def Con from 0.00499465 to 0.00499465
Heightened Def Con from 0.00499465 to 0.00499467
Heightened Def Con from 0.00499705 to 0.00499705
Heightened Def Con from 0.00499705 to 0.00499708
Heightened Def Con from 0.00499955 to 0.00499955
Heightened Def Con from 0.00499955 to 0.00499957
N-Period=1
Fourier components of V(vo)
DC component:-0.135165

Harmonic	Frequency	 Fourier 	Normalized	 Phase  	Normalized
 Number 	  [Hz]   	Component	 Component	[degree]	Phase [deg]
    1   	1.000e+03	2.175e+01	1.000e+00	   -1.50°	    0.00°
    2   	2.000e+03	4.422e-03	2.033e-04	  140.75°	  142.25°
    3   	3.000e+03	6.017e-02	2.766e-03	  167.95°	  169.45°
    4   	4.000e+03	5.668e-03	2.606e-04	 -177.89°	 -176.39°
    5   	5.000e+03	1.920e-02	8.828e-04	  151.19°	  152.69°
    6   	6.000e+03	3.154e-03	1.450e-04	   72.60°	   74.10°
    7   	7.000e+03	5.514e-03	2.535e-04	   39.20°	   40.70°
    8   	8.000e+03	2.666e-03	1.226e-04	  127.97°	  129.47°
    9   	9.000e+03	7.026e-03	3.230e-04	   21.87°	   23.37°
Total Harmonic Distortion: 0.295714%(8.102565%)



Date: Mon Mar 02 21:13:07 2020
Total elapsed time: 1178.674 seconds.

tnom = 27
temp = 27
method = modified trap
totiter = 11828226
traniter = 11828226
tranpoints = 3689128
accept = 2742055
rejected = 950213
matrix size = 370
fillins = 553
solver = Alternate
Thread vector: 61.8/43.5[5] 21.1/10.8[5] 13.8/4.2[5] 4.4/3.4[5]  2592/500
Matrix Compiler1: 63.97 KB object code size  18.7/12.7/[5.3]
Matrix Compiler2: 42.55 KB object code size  8.6/10.6/[3.4]

