Circuit: * C:\Users\Ema\Desktop\DCE-GRUPO10\DISTORSION\INTERMODULACION\Intermod_30W.asc

Questionable use of curly braces in "b§e_abmgate yint 0 v={if(v(a)>{{vthresh}},{{vss}},{{vdd}})}"
    Error: undefined symbol in: "if([v](a)>((vthresh)),((vss)),((vdd)))"
Questionable use of curly braces in "b§e_abmgate yint 0 v={if(v(a)>{{vthresh}}&v(b)>{{vthresh}},{{vdd}},{{vss}})}"
    Error: undefined symbol in: "if([v](a)>((vthresh))&v(b)>((vthresh)),((vdd)),((vss)))"
Questionable use of curly braces in "b§e_abmgate yint 0 v={if(v(a)>{{vthresh}}&v(b)>{{vthresh}},{{vdd}},{{vss}})}"
    Error: undefined symbol in: "if([v](a)>((vthresh))&v(b)>((vthresh)),((vdd)),((vss)))"
Questionable use of curly braces in "b§e_abmgate yint 0 v={if(v(a)>{{vthresh}},{{vss}},{{vdd}})}"
    Error: undefined symbol in: "if([v](a)>((vthresh)),((vss)),((vdd)))"
Questionable use of curly braces in "b§e_abmgate yint 0 v={if(v(a)>{{vthresh}}&v(b)>{{vthresh}},{{vdd}},{{vss}})}"
    Error: undefined symbol in: "if([v](a)>((vthresh))&v(b)>((vthresh)),((vdd)),((vss)))"
Questionable use of curly braces in "b§e_abmgate yint 0 v={if(v(a)>{{vthresh}},{{vss}},{{vdd}})}"
    Error: undefined symbol in: "if([v](a)>((vthresh)),((vss)),((vdd)))"
Error on line 38 : v§senoidal_5khz n010 0 sine(0  0.2 /4 5k)
	 Unknown parameter "/4"
WARNING: Less than two connections to node -5V.  This node is used by V2.
WARNING: Less than two connections to node NC_03.  This node is used by V:U4:_V11.
WARNING: Less than two connections to node NC_02.  This node is used by V:U4:_V12.
WARNING: Less than two connections to node NC_01.  This node is used by V:U4:_V13.
WARNING: Less than two connections to node NC_04.  This node is used by V:U4:_V14.
Instance "m:u4:_m12:1": Length shorter than recommended for a level 1 MOSFET.
Instance "m:u4:_m14:1": Length shorter than recommended for a level 1 MOSFET.
Instance "m:u4:_m15:1": Length shorter than recommended for a level 1 MOSFET.
Instance "m:u4:_m13:1": Length shorter than recommended for a level 1 MOSFET.
Instance "m:m2:2": Length shorter than recommended for a level 3 MOSFET.
Instance "m:m2:1": Length shorter than recommended for a level 3 MOSFET.
Instance "m:m1:2": Length shorter than recommended for a level 3 MOSFET.
Instance "m:m1:1": Length shorter than recommended for a level 3 MOSFET.
Per .tran options, skipping operating point for transient analysis.
Ignoring empty pin current: Ix(u4:vcci_1)
.step vin=0.2
Changing Tseed to 1.07422e-009
Changing Tseed to 1.07422e-011
Changing Tseed to 1.07422e-008
Changing Tseed to 1.07422e-012
Changing Tseed to 1.07422e-007
Changing Tseed to 1.07422e-013
Changing Tseed to 1.07422e-006
Changing Tseed to 1.07422e-014
Changing Tseed to 1.07422e-005
Changing Tseed to 1.07422e-015
Changing Tseed to 0.000107422
Changing Tseed to 1.07422e-016
Heightened Def Con from 0 Changing Tseed to 1e-009
Changing Tseed to 1e-011
Changing Tseed to 1e-008
Changing Tseed to 1e-012
Changing Tseed to 1e-007
Changing Tseed to 1e-013
Changing Tseed to 1e-006
Changing Tseed to 1e-014
Changing Tseed to 1e-005
Changing Tseed to 1e-015
Changing Tseed to 0.0001
Changing Tseed to 1e-016
+Changing Tseed to 1e-009
Changing Tseed to 1e-011
Changing Tseed to 1e-008
Changing Tseed to 1e-012
Changing Tseed to 1e-007
Changing Tseed to 1e-013
Changing Tseed to 1e-006
Changing Tseed to 1e-014
Changing Tseed to 1e-005
Changing Tseed to 1e-015
Changing Tseed to 0.0001
Changing Tseed to 1e-016
+Changing Tseed to 1e-009
Changing Tseed to 1e-011
Changing Tseed to 1e-008
Changing Tseed to 1e-012
Changing Tseed to 1e-007
Changing Tseed to 1e-013
Changing Tseed to 1e-006
Changing Tseed to 1e-014
Changing Tseed to 1e-005
Changing Tseed to 1e-015
Changing Tseed to 0.0001
Changing Tseed to 1e-016
+Changing Tseed to 1e-009
Changing Tseed to 1e-011
Changing Tseed to 1e-008
Changing Tseed to 1e-012
Changing Tseed to 1e-007
Changing Tseed to 1e-013
Changing Tseed to 1e-006
Changing Tseed to 1e-014
Changing Tseed to 1e-005
Changing Tseed to 1e-015
Changing Tseed to 0.0001
Changing Tseed to 1e-016
+Changing Tseed to 1e-009
Changing Tseed to 1e-011
Changing Tseed to 1e-008
Changing Tseed to 1e-012
Changing Tseed to 1e-007
Changing Tseed to 1e-013
Changing Tseed to 1e-006
Changing Tseed to 1e-014
Changing Tseed to 1e-005
Changing Tseed to 1e-015
Changing Tseed to 0.0001
Changing Tseed to 1e-016
+Changing Tseed to 1e-009
Changing Tseed to 1e-011
Changing Tseed to 1e-008
Changing Tseed to 1e-012
Changing Tseed to 1e-007
Changing Tseed to 1e-013
Changing Tseed to 1e-006
Changing Tseed to 1e-014
Changing Tseed to 1e-005
Changing Tseed to 1e-015
Changing Tseed to 0.0001
Changing Tseed to 1e-016
+Changing Tseed to 1e-009
Changing Tseed to 1e-011
Changing Tseed to 1e-008
Changing Tseed to 1e-012
Changing Tseed to 1e-007
Changing Tseed to 1e-013
Changing Tseed to 1e-006
Changing Tseed to 1e-014
Changing Tseed to 1e-005
Changing Tseed to 1e-015
Changing Tseed to 0.0001
Changing Tseed to 1e-016
+Changing Tseed to 1e-009
Changing Tseed to 1e-011
Changing Tseed to 1e-008
Changing Tseed to 1e-012
Changing Tseed to 1e-007
Changing Tseed to 1e-013
Changing Tseed to 1e-006
Changing Tseed to 1e-014
Changing Tseed to 1e-005
Changing Tseed to 1e-015
Changing Tseed to 0.0001
Changing Tseed to 1e-016
+Changing Tseed to 1e-009
Changing Tseed to 1e-011
Changing Tseed to 1e-008
Changing Tseed to 1e-012
Changing Tseed to 1e-007
Changing Tseed to 1e-013
Changing Tseed to 1e-006
Changing Tseed to 1e-014
Changing Tseed to 1e-005
Changing Tseed to 1e-015
Changing Tseed to 0.0001
Changing Tseed to 1e-016
+Changing Tseed to 1e-009
Changing Tseed to 1e-011
Changing Tseed to 1e-008
Changing Tseed to 1e-012
Changing Tseed to 1e-007
Changing Tseed to 1e-013
Changing Tseed to 1e-006
Changing Tseed to 1e-014
Changing Tseed to 1e-005
Changing Tseed to 1e-015
Changing Tseed to 0.0001
Changing Tseed to 1e-016
+Changing Tseed to 1e-009
Changing Tseed to 1e-011
Changing Tseed to 1e-008
Changing Tseed to 1e-012
Changing Tseed to 1e-007
Changing Tseed to 1e-013
Changing Tseed to 1e-006
Changing Tseed to 1e-014
Changing Tseed to 1e-005
Changing Tseed to 1e-015
Changing Tseed to 0.0001
Changing Tseed to 1e-016
+Changing Tseed to 1e-009
Changing Tseed to 1e-011
Changing Tseed to 1e-008
Changing Tseed to 1e-012
Changing Tseed to 1e-007
Changing Tseed to 1e-013
Changing Tseed to 1e-006
Changing Tseed to 1e-014
Changing Tseed to 1e-005
Changing Tseed to 1e-015
Changing Tseed to 0.0001
Changing Tseed to 1e-016
+Changing Tseed to 1e-009
Changing Tseed to 1e-011
Changing Tseed to 1e-008
Changing Tseed to 1e-012
Changing Tseed to 1e-007
Changing Tseed to 1e-013
Changing Tseed to 1e-006
Changing Tseed to 1e-014
Changing Tseed to 1e-005
Changing Tseed to 1e-015
Changing Tseed to 0.0001
Changing Tseed to 1e-016
+Changing Tseed to 1e-009
Changing Tseed to 1e-011
Changing Tseed to 1e-008
Changing Tseed to 1e-012
Changing Tseed to 1e-007
Changing Tseed to 1e-013
Changing Tseed to 1e-006
Changing Tseed to 1e-014
Changing Tseed to 1e-005
Changing Tseed to 1e-015
Changing Tseed to 0.0001
Changing Tseed to 1e-016
+Changing Tseed to 1e-009
Changing Tseed to 1e-011
Changing Tseed to 1e-008
Changing Tseed to 1e-012
Changing Tseed to 1e-007
Changing Tseed to 1e-013
Changing Tseed to 1e-006
Changing Tseed to 1e-014
Changing Tseed to 1e-005
Changing Tseed to 1e-015
Changing Tseed to 0.0001
Changing Tseed to 1e-016
+Changing Tseed to 1e-009
Changing Tseed to 1e-011
Changing Tseed to 1e-008
Changing Tseed to 1e-012
Changing Tseed to 1e-007
Changing Tseed to 1e-013
Changing Tseed to 1e-006
Changing Tseed to 1e-014
Changing Tseed to 1e-005
Changing Tseed to 1e-015
Changing Tseed to 0.0001
Changing Tseed to 1e-016
+Changing Tseed to 1e-009
Changing Tseed to 1e-011
Changing Tseed to 1e-008
Changing Tseed to 1e-012
Changing Tseed to 1e-007
Changing Tseed to 1e-013
Changing Tseed to 1e-006
Changing Tseed to 1e-014
Changing Tseed to 1e-005
Changing Tseed to 1e-015
Changing Tseed to 0.0001
Changing Tseed to 1e-016
+Changing Tseed to 1e-009
Changing Tseed to 1e-011
Changing Tseed to 1e-008
Changing Tseed to 1e-012
Changing Tseed to 1e-007
Changing Tseed to 1e-013
Changing Tseed to 1e-006
Changing Tseed to 1e-014
Changing Tseed to 1e-005
Changing Tseed to 1e-015
Changing Tseed to 0.0001
Changing Tseed to 1e-016
+Changing Tseed to 1e-009
Changing Tseed to 1e-011
Changing Tseed to 1e-008
Changing Tseed to 1e-012
Changing Tseed to 1e-007
Changing Tseed to 1e-013
Changing Tseed to 1e-006
Changing Tseed to 1e-014
Changing Tseed to 1e-005
Changing Tseed to 1e-015
Changing Tseed to 0.0001
Changing Tseed to 1e-016
+Changing Tseed to 1e-009
Changing Tseed to 1e-011
Changing Tseed to 1e-008
Changing Tseed to 1e-012
Changing Tseed to 1e-007
Changing Tseed to 1e-013
Changing Tseed to 1e-006
Changing Tseed to 1e-014
Changing Tseed to 1e-005
Changing Tseed to 1e-015
Changing Tseed to 0.0001
Changing Tseed to 1e-016
+Changing Tseed to 1e-009
Changing Tseed to 1e-011
Changing Tseed to 1e-008
Changing Tseed to 1e-012
Changing Tseed to 1e-007
Changing Tseed to 1e-013
Changing Tseed to 1e-006
Changing Tseed to 1e-014
Changing Tseed to 1e-005
Changing Tseed to 1e-015
Changing Tseed to 0.0001
Changing Tseed to 1e-016
+Changing Tseed to 1e-009
Changing Tseed to 1e-011
Changing Tseed to 1e-008
Changing Tseed to 1e-012
Changing Tseed to 1e-007
Changing Tseed to 1e-013
Changing Tseed to 1e-006
Changing Tseed to 1e-014
Changing Tseed to 1e-005
Changing Tseed to 1e-015
Changing Tseed to 0.0001
Changing Tseed to 1e-016
+Changing Tseed to 1e-009
Changing Tseed to 1e-011
Changing Tseed to 1e-008
Changing Tseed to 1e-012
Changing Tseed to 1e-007
Changing Tseed to 1e-013
Changing Tseed to 1e-006
Changing Tseed to 1e-014
Changing Tseed to 1e-005
Changing Tseed to 1e-015
Changing Tseed to 0.0001
Changing Tseed to 1e-016
+Changing Tseed to 1e-009
Changing Tseed to 1e-011
Changing Tseed to 1e-008
Changing Tseed to 1e-012
Changing Tseed to 1e-007
Changing Tseed to 1e-013
Changing Tseed to 1e-006
Changing Tseed to 1e-014
Changing Tseed to 1e-005
Changing Tseed to 1e-015
Changing Tseed to 0.0001
Changing Tseed to 1e-016
+Changing Tseed to 1e-009
Changing Tseed to 1e-011
Changing Tseed to 1e-008
Changing Tseed to 1e-012
Changing Tseed to 1e-007
Changing Tseed to 1e-013
Changing Tseed to 1e-006
Changing Tseed to 1e-014
Changing Tseed to 1e-005
Changing Tseed to 1e-015
Changing Tseed to 0.0001
Changing Tseed to 1e-016
+Changing Tseed to 1e-009
Changing Tseed to 1e-011
Changing Tseed to 1e-008
Changing Tseed to 1e-012
Changing Tseed to 1e-007
Changing Tseed to 1e-013
to 1.125e-013
Heightened Def Con from 5.63697e-005 to 5.63698e-005
Heightened Def Con from 5.88755e-005 to 5.88855e-005
Heightened Def Con from 6.13704e-005 to 6.13705e-005
Heightened Def Con from 6.63717e-005 to 6.63719e-005
Heightened Def Con from 7.1372e-005 to 7.13721e-005
Heightened Def Con from 7.38701e-005 to 7.38871e-005
Heightened Def Con from 7.6372e-005 to 7.6373e-005
Heightened Def Con from 8.13723e-005 to 8.13724e-005
Heightened Def Con from 8.63736e-005 to 8.63737e-005
Heightened Def Con from 9.13738e-005 to 9.1374e-005
Heightened Def Con from 9.38581e-005 to 9.38771e-005
Heightened Def Con from 9.63745e-005 to 9.63746e-005
Heightened Def Con from 9.88629e-005 to 9.88819e-005
Heightened Def Con from 0.000101375 to 0.000101375
Heightened Def Con from 0.000103858 to 0.000103877
Heightened Def Con from 0.000106375 to 0.000106376
Heightened Def Con from 0.000111375 to 0.000111376
Heightened Def Con from 0.000116376 to 0.000116377
Heightened Def Con from 0.000121377 to 0.000121378
Heightened Def Con from 0.000126378 to 0.000126378
Heightened Def Con from 0.000131378 to 0.000131378
Heightened Def Con from 0.000133852 to 0.000133853
Heightened Def Con from 0.000133854 to 0.000133854
Heightened Def Con from 0.000136379 to 0.000136379
Heightened Def Con from 0.00013638 to 0.0001364
Heightened Def Con from 0.000138854 to 0.000138855
Heightened Def Con from 0.000141378 to 0.000141378
Heightened Def Con from 0.000141379 to 0.000141379
Heightened Def Con from 0.000143857 to 0.000143857
Heightened Def Con from 0.00014638 to 0.00014638
Heightened Def Con from 0.000148854 to 0.000148854
Heightened Def Con from 0.00015138 to 0.00015138
Heightened Def Con from 0.000151381 to 0.000151381
Heightened Def Con from 0.000153856 to 0.000153857
Heightened Def Con from 0.00015638 to 0.000156381
Heightened Def Con from 0.000156381 to 0.000156381
Heightened Def Con from 0.000158852 to 0.000158853
Heightened Def Con from 0.000161381 to 0.000161381
Heightened Def Con from 0.000163852 to 0.000163853
Heightened Def Con from 0.000163854 to 0.000163874
Heightened Def Con from 0.000166383 to 0.000166384
Heightened Def Con from 0.000168852 to 0.000168852
Heightened Def Con from 0.000171381 to 0.000171382
Heightened Def Con from 0.000171382 to 0.000171382
Heightened Def Con from 0.00017385 to 0.00017385
Heightened Def Con from 0.000176383 to 0.000176383
Heightened Def Con from 0.000176383 to 0.000176383
Heightened Def Con from 0.00017885 to 0.000178851
Heightened Def Con from 0.000181383 to 0.000181383
Heightened Def Con from 0.000181384 to 0.000181384
Heightened Def Con from 0.000183851 to 0.000183851
Heightened Def Con from 0.000186384 to 0.000186385
Heightened Def Con from 0.000188853 to 0.000188853
Heightened Def Con from 0.000191384 to 0.000191384
Heightened Def Con from 0.000191385 to 0.000191386
Heightened Def Con from 0.000193853 to 0.000193854
Heightened Def Con from 0.000196385 to 0.000196385
Heightened Def Con from 0.000196385 to 0.000196385
Heightened Def Con from 0.00019885 to 0.000198851
Heightened Def Con from 0.000198852 to 0.000198872
Heightened Def Con from 0.000201385 to 0.000201385
Heightened Def Con from 0.000201385 to 0.000201385
Heightened Def Con from 0.000203851 to 0.000203851
Heightened Def Con from 0.000203853 to 0.000203873
Heightened Def Con from 0.000206386 to 0.000206386
Heightened Def Con from 0.000206387 to 0.000206387
Heightened Def Con from 0.000208847 to 0.000208847
Heightened Def Con from 0.000211386 to 0.000211386
Heightened Def Con from 0.000211387 to 0.000211388
Heightened Def Con from 0.000213847 to 0.000213848
Heightened Def Con from 0.000216386 to 0.000216386
Heightened Def Con from 0.000216386 to 0.000216387
Heightened Def Con from 0.000218847 to 0.000218848
Heightened Def Con from 0.00021885 to 0.00021887
Heightened Def Con from 0.000221388 to 0.000221388
Heightened Def Con from 0.000223846 to 0.000223846
Heightened Def Con from 0.000223848 to 0.000223868
Heightened Def Con from 0.000226388 to 0.000226388
Heightened Def Con from 0.000226388 to 0.000226388
Heightened Def Con from 0.000228846 to 0.000228846
Heightened Def Con from 0.000231388 to 0.000231389
Heightened Def Con from 0.000233842 to 0.000233843
Heightened Def Con from 0.000233844 to 0.000233864
Heightened Def Con from 0.000236388 to 0.000236388
Heightened Def Con from 0.000236388 to 0.000236389
Heightened Def Con from 0.000238844 to 0.000238844
Heightened Def Con from 0.000238845 to 0.000238865
Heightened Def Con from 0.00024139 to 0.000241391
Heightened Def Con from 0.000243845 to 0.000243845
Heightened Def Con from 0.00024639 to 0.00024639
Heightened Def Con from 0.00024639 to 0.000246391
Heightened Def Con from 0.000248842 to 0.000248842
Heightened Def Con from 0.000248844 to 0.000248864
Heightened Def Con from 0.00025139 to 0.00025139
Heightened Def Con from 0.000251391 to 0.000251392
Heightened Def Con from 0.000253841 to 0.000253841
Heightened Def Con from 0.000253843 to 0.000253863
Heightened Def Con from 0.000256391 to 0.000256391
Heightened Def Con from 0.000256391 to 0.000256392
Heightened Def Con from 0.000258842 to 0.000258842
Heightened Def Con from 0.000258844 to 0.000258864
Heightened Def Con from 0.000261392 to 0.000261392
Heightened Def Con from 0.000263846 to 0.000263846
Heightened Def Con from 0.000263848 to 0.000263868
Heightened Def Con from 0.000266392 to 0.000266392
Heightened Def Con from 0.000266392 to 0.000266392
Heightened Def Con from 0.000268842 to 0.000268842
Heightened Def Con from 0.000271392 to 0.000271392
Heightened Def Con from 0.000271392 to 0.000271392
Heightened Def Con from 0.000273841 to 0.000273841
Heightened Def Con from 0.000273843 to 0.000273863
Heightened Def Con from 0.000276394 to 0.000276394
Heightened Def Con from 0.000278843 to 0.000278844
Heightened Def Con from 0.000281393 to 0.000281393
Heightened Def Con from 0.000281393 to 0.000281393
Heightened Def Con from 0.000283843 to 0.000283843
Heightened Def Con from 0.000283845 to 0.000283865
Heightened Def Con from 0.000286393 to 0.000286393
Heightened Def Con from 0.000286394 to 0.000286394
Heightened Def Con from 0.000288841 to 0.000288842
Heightened Def Con from 0.000291394 to 0.000291395
Heightened Def Con from 0.000291395 to 0.000291395
Heightened Def Con from 0.00029384 to 0.00029384
Heightened Def Con from 0.000296394 to 0.000296394
Heightened Def Con from 0.000296395 to 0.000296396
Heightened Def Con from 0.000298839 to 0.000298839
Heightened Def Con from 0.000301396 to 0.000301396
Heightened Def Con from 0.000301396 to 0.000301396
Heightened Def Con from 0.000303839 to 0.000303839
Heightened Def Con from 0.000303841 to 0.000303861
Heightened Def Con from 0.000306396 to 0.000306396
Heightened Def Con from 0.00030884 to 0.000308841
Heightened Def Con from 0.000311395 to 0.000311395
Heightened Def Con from 0.000311396 to 0.000311396
Heightened Def Con from 0.000313841 to 0.000313841
Heightened Def Con from 0.000316397 to 0.000316397
Heightened Def Con from 0.000316397 to 0.000316398
Heightened Def Con from 0.000318837 to 0.000318837
Heightened Def Con from 0.000318839 to 0.000318859
Heightened Def Con from 0.000321398 to 0.000321399
Heightened Def Con from 0.000323841 to 0.000323842
Heightened Def Con from 0.000323843 to 0.000323863
Heightened Def Con from 0.000326397 to 0.000326397
Heightened Def Con from 0.000326398 to 0.000326398
Heightened Def Con from 0.000328837 to 0.000328837
Heightened Def Con from 0.000328839 to 0.000328859
Heightened Def Con from 0.000331399 to 0.000331399
Heightened Def Con from 0.000333834 to 0.000333835
Heightened Def Con from 0.000336399 to 0.000336399
Heightened Def Con from 0.000336399 to 0.0003364
Heightened Def Con from 0.000338832 to 0.000338832
Heightened Def Con from 0.0003414 to 0.0003414
Heightened Def Con from 0.000343832 to 0.000343832
Heightened Def Con from 0.000343834 to 0.000343854
Heightened Def Con from 0.0003464 to 0.000346401
Heightened Def Con from 0.000348837 to 0.000348838
Heightened Def Con from 0.0003514 to 0.0003514
Heightened Def Con from 0.000351401 to 0.000351401
Heightened Def Con from 0.000353832 to 0.000353832
Heightened Def Con from 0.000353834 to 0.000353854
Heightened Def Con from 0.000356401 to 0.000356402
Heightened Def Con from 0.000358833 to 0.000358833
Heightened Def Con from 0.000361402 to 0.000361402
Heightened Def Con from 0.000363833 to 0.000363833
Heightened Def Con from 0.000363835 to 0.000363855
Heightened Def Con from 0.000366402 to 0.000366402
Heightened Def Con from 0.00036883 to 0.00036883
Heightened Def Con from 0.000371403 to 0.000371403
Heightened Def Con from 0.000371403 to 0.000371403
Heightened Def Con from 0.00037383 to 0.00037383
Heightened Def Con from 0.000376403 to 0.000376404
Heightened Def Con from 0.00037883 to 0.000378831
Heightened Def Con from 0.000378832 to 0.000378852
Heightened Def Con from 0.000381403 to 0.000381403
Heightened Def Con from 0.000381404 to 0.000381404
Heightened Def Con from 0.000383828 to 0.000383828
Heightened Def Con from 0.00038383 to 0.00038385
Heightened Def Con from 0.000386404 to 0.000386404
Heightened Def Con from 0.000386405 to 0.000386405
Heightened Def Con from 0.000388829 to 0.000388829
Heightened Def Con from 0.000388831 to 0.000388851
Heightened Def Con from 0.000391405 to 0.000391406
Heightened Def Con from 0.000393831 to 0.000393831
Heightened Def Con from 0.000393833 to 0.000393853
Heightened Def Con from 0.000396406 to 0.000396406
Heightened Def Con from 0.000398826 to 0.000398827
Heightened Def Con from 0.000401405 to 0.000401405
Heightened Def Con from 0.000401406 to 0.000401407
Heightened Def Con from 0.000403831 to 0.000403831
Heightened Def Con from 0.000406406 to 0.000406406
Heightened Def Con from 0.000406407 to 0.000406408
Heightened Def Con from 0.000408825 to 0.000408825
Heightened Def Con from 0.000408827 to 0.000408847
Heightened Def Con from 0.000411406 to 0.000411406
Heightened Def Con from 0.000411407 to 0.000411407
Heightened Def Con from 0.000413826 to 0.000413826
Heightened Def Con from 0.000416406 to 0.000416406
Heightened Def Con from 0.000416407 to 0.000416408
Heightened Def Con from 0.000418827 to 0.000418827
Heightened Def Con from 0.000421407 to 0.000421407
Heightened Def Con from 0.000421408 to 0.000421408
Heightened Def Con from 0.000423828 to 0.000423828
Heightened Def Con from 0.00042383 to 0.00042385
Heightened Def Con from 0.000426408 to 0.000426408
Heightened Def Con from 0.000426409 to 0.000426409
Heightened Def Con from 0.000428823 to 0.000428824
Heightened Def Con from 0.000431408 to 0.000431408
Heightened Def Con from 0.000431409 to 0.000431409
Heightened Def Con from 0.000433825 to 0.000433825
Heightened Def Con from 0.000433827 to 0.000433846
Heightened Def Con from 0.00043641 to 0.00043641
Heightened Def Con from 0.000438823 to 0.000438824
Heightened Def Con from 0.00044141 to 0.00044141
Heightened Def Con from 0.00044141 to 0.00044141
Heightened Def Con from 0.00044141 to 0.000441411
Heightened Def Con from 0.000443823 to 0.000443824
Heightened Def Con from 0.000446411 to 0.000446412
Heightened Def Con from 0.000448821 to 0.000448821
Heightened Def Con from 0.000451411 to 0.000451411
Heightened Def Con from 0.000453824 to 0.000453824
Heightened Def Con from 0.00045641 to 0.00045641
Heightened Def Con from 0.00045641 to 0.000456411
Heightened Def Con from 0.000456411 to 0.000456411
Heightened Def Con from 0.000458827 to 0.000458828
Heightened Def Con from 0.00045883 to 0.00045885
Heightened Def Con from 0.000461411 to 0.000461411
Heightened Def Con from 0.000461412 to 0.000461412
Heightened Def Con from 0.000463825 to 0.000463825
Heightened Def Con from 0.000463828 to 0.000463848
Heightened Def Con from 0.000466412 to 0.000466412
Heightened Def Con from 0.000466413 to 0.000466414
Heightened Def Con from 0.000468821 to 0.000468821
Heightened Def Con from 0.000471412 to 0.000471412
Heightened Def Con from 0.000471413 to 0.000471413
Heightened Def Con from 0.000473821 to 0.000473821
Heightened Def Con from 0.000476413 to 0.000476413
Heightened Def Con from 0.00047882 to 0.00047882
Heightened Def Con from 0.000481413 to 0.000481413
Heightened Def Con from 0.000481414 to 0.000481414
Heightened Def Con from 0.000481414 to 0.000481414
Heightened Def Con from 0.000483823 to 0.000483823
Heightened Def Con from 0.000486414 to 0.000486414
Heightened Def Con from 0.000488817 to 0.000488818
Heightened Def Con from 0.00048882 to 0.000488839
Heightened Def Con from 0.000491415 to 0.000491416
Heightened Def Con from 0.000493819 to 0.000493819
Heightened Def Con from 0.000496415 to 0.000496415
Heightened Def Con from 0.000496415 to 0.000496415
Heightened Def Con from 0.000498819 to 0.00049882
Heightened Def Con from 0.000501415 to 0.000501415
Heightened Def Con from 0.000501416 to 0.000501416
Heightened Def Con from 0.000503821 to 0.000503821
Heightened Def Con from 0.000506417 to 0.000506417
Heightened Def Con from 0.000508817 to 0.000508818
Heightened Def Con from 0.000511416 to 0.000511416
Heightened Def Con from 0.000511417 to 0.000511418
Heightened Def Con from 0.000513817 to 0.000513818
Heightened Def Con from 0.00051382 to 0.000513839
Heightened Def Con from 0.000516418 to 0.000516418
Heightened Def Con from 0.000518818 to 0.000518819
Heightened Def Con from 0.000518821 to 0.000518841
Heightened Def Con from 0.000521417 to 0.000521417
Heightened Def Con from 0.000521418 to 0.000521418
Heightened Def Con from 0.000523817 to 0.000523818
Heightened Def Con from 0.00052382 to 0.000523839
Heightened Def Con from 0.000526419 to 0.000526419
Heightened Def Con from 0.000528817 to 0.000528817
Heightened Def Con from 0.000528819 to 0.000528838
Heightened Def Con from 0.000531418 to 0.000531418
Heightened Def Con from 0.000531419 to 0.000531419
Heightened Def Con from 0.000533817 to 0.000533817
Heightened Def Con from 0.00053382 to 0.000533839
Heightened Def Con from 0.000536419 to 0.00053642
Heightened Def Con from 0.000538814 to 0.000538814
Heightened Def Con from 0.000538817 to 0.000538836
Heightened Def Con from 0.000541418 to 0.000541418
Heightened Def Con from 0.000541419 to 0.000541421
Heightened Def Con from 0.000543814 to 0.000543814
Heightened Def Con from 0.000543816 to 0.000543835
Heightened Def Con from 0.00054642 to 0.00054642
Heightened Def Con from 0.000546421 to 0.000546421
Heightened Def Con from 0.000548817 to 0.000548817
Heightened Def Con from 0.000548819 to 0.000548839
Heightened Def Con from 0.000551419 to 0.00055142
Heightened Def Con from 0.00055142 to 0.00055142
Heightened Def Con from 0.000553812 to 0.000553812
Heightened Def Con from 0.000553815 to 0.000553834
Heightened Def Con from 0.00055642 to 0.00055642
Heightened Def Con from 0.000556421 to 0.000556421
Heightened Def Con from 0.000558815 to 0.000558815
Heightened Def Con from 0.000561421 to 0.000561421
Heightened Def Con from 0.000561422 to 0.000561422
Heightened Def Con from 0.000563813 to 0.000563813
Heightened Def Con from 0.000566422 to 0.000566423
Heightened Def Con from 0.000568813 to 0.000568813
Heightened Def Con from 0.000571423 to 0.000571424
Heightened Def Con from 0.000573812 to 0.000573812
Heightened Def Con from 0.000573815 to 0.000573834
Heightened Def Con from 0.000576423 to 0.000576423
Heightened Def Con from 0.000578816 to 0.000578816
Heightened Def Con from 0.000581423 to 0.000581423
Heightened Def Con from 0.000581424 to 0.000581424
Heightened Def Con from 0.000583811 to 0.000583811
Heightened Def Con from 0.000586424 to 0.000586424
Heightened Def Con from 0.000588809 to 0.00058881
Heightened Def Con from 0.000588812 to 0.000588831
Heightened Def Con from 0.000591425 to 0.000591425
Heightened Def Con from 0.000593814 to 0.000593814
Heightened Def Con from 0.000593817 to 0.000593836
Heightened Def Con from 0.000596424 to 0.000596424
Heightened Def Con from 0.000596425 to 0.000596425
Heightened Def Con from 0.000598808 to 0.000598808
Heightened Def Con from 0.00059881 to 0.00059883
Heightened Def Con from 0.000601425 to 0.000601425
Heightened Def Con from 0.000601426 to 0.000601427
Heightened Def Con from 0.000603812 to 0.000603812
Heightened Def Con from 0.000606426 to 0.000606426
Heightened Def Con from 0.000606427 to 0.000606428
Heightened Def Con from 0.000608808 to 0.000608809
Heightened Def Con from 0.000611425 to 0.000611425
Heightened Def Con from 0.000611426 to 0.000611426
Heightened Def Con from 0.000613809 to 0.00061381
Heightened Def Con from 0.000616427 to 0.000616427
Heightened Def Con from 0.000618809 to 0.00061881
Heightened Def Con from 0.000618812 to 0.000618831
Heightened Def Con from 0.000621428 to 0.000621428
Heightened Def Con from 0.000623806 to 0.000623806
Heightened Def Con from 0.000623809 to 0.000623828
Heightened Def Con from 0.000626429 to 0.000626429
Heightened Def Con from 0.000628808 to 0.000628808
Heightened Def Con from 0.000628811 to 0.00062883
Heightened Def Con from 0.000633805 to 0.000633805
Heightened Def Con from 0.000633808 to 0.000633827
Heightened Def Con from 0.00063643 to 0.00063643
Heightened Def Con from 0.000638806 to 0.000638806
Heightened Def Con from 0.000641429 to 0.000641429
Heightened Def Con from 0.000641431 to 0.000641432
Heightened Def Con from 0.000643807 to 0.000643807
Heightened Def Con from 0.000643809 to 0.000643828
Heightened Def Con from 0.00064643 to 0.00064643
Heightened Def Con from 0.000648804 to 0.000648804
Heightened Def Con from 0.000651429 to 0.000651429
Heightened Def Con from 0.000651431 to 0.000651431
Heightened Def Con from 0.000653806 to 0.000653806
Heightened Def Con from 0.000656431 to 0.000656432
Heightened Def Con from 0.000658804 to 0.000658804
Heightened Def Con from 0.000661432 to 0.000661432
Heightened Def Con from 0.000663806 to 0.000663806
Heightened Def Con from 0.000663808 to 0.000663827
Heightened Def Con from 0.000666431 to 0.000666432
Heightened Def Con from 0.000666433 to 0.000666433
Heightened Def Con from 0.000668805 to 0.000668805
Heightened Def Con from 0.000668808 to 0.000668827
Heightened Def Con from 0.000671431 to 0.000671431
Heightened Def Con from 0.000671432 to 0.000671432
Heightened Def Con from 0.000673803 to 0.000673803
Heightened Def Con from 0.000673806 to 0.000673825
Heightened Def Con from 0.000676433 to 0.000676434
Heightened Def Con from 0.000678798 to 0.000678798
Heightened Def Con from 0.000678801 to 0.00067882
Heightened Def Con from 0.000681433 to 0.000681433
Heightened Def Con from 0.000683802 to 0.000683802
Heightened Def Con from 0.000683804 to 0.000683823
Heightened Def Con from 0.000686435 to 0.000686435
Heightened Def Con from 0.000688801 to 0.000688802
Heightened Def Con from 0.000688803 to 0.000688822
Heightened Def Con from 0.000691433 to 0.000691433
Heightened Def Con from 0.000691434 to 0.000691435
Heightened Def Con from 0.000693798 to 0.000693798
Heightened Def Con from 0.000693801 to 0.00069382
Heightened Def Con from 0.000696434 to 0.000696434
Heightened Def Con from 0.000696435 to 0.000696436
Heightened Def Con from 0.000698803 to 0.000698803
Heightened Def Con from 0.000701434 to 0.000701434
Heightened Def Con from 0.000701435 to 0.000701435
Heightened Def Con from 0.000703797 to 0.000703798
Heightened Def Con from 0.000706436 to 0.000706436
Heightened Def Con from 0.0007088 to 0.000708801
Heightened Def Con from 0.000708802 to 0.000708821
Heightened Def Con from 0.000711436 to 0.000711437
Heightened Def Con from 0.000713799 to 0.000713799
Heightened Def Con from 0.000716435 to 0.000716435
Heightened Def Con from 0.000716437 to 0.000716437
Heightened Def Con from 0.000718799 to 0.000718799
Heightened Def Con from 0.000721438 to 0.000721439
Heightened Def Con from 0.000723797 to 0.000723797
Heightened Def Con from 0.0007238 to 0.000723818
Heightened Def Con from 0.000726437 to 0.000726437
Heightened Def Con from 0.000728798 to 0.000728798
Heightened Def Con from 0.000731438 to 0.000731439
Heightened Def Con from 0.000733799 to 0.000733799
Heightened Def Con from 0.000736439 to 0.000736439
Heightened Def Con from 0.000738793 to 0.000738793
Heightened Def Con from 0.000741439 to 0.00074144
Heightened Def Con from 0.000743795 to 0.000743796
Heightened Def Con from 0.00074644 to 0.00074644
Heightened Def Con from 0.000748796 to 0.000748796
Heightened Def Con from 0.00075144 to 0.00075144
Heightened Def Con from 0.000751441 to 0.000751441
Heightened Def Con from 0.000753798 to 0.000753799
Heightened Def Con from 0.000753801 to 0.00075382
Heightened Def Con from 0.000756439 to 0.000756439
Heightened Def Con from 0.00075644 to 0.00075644
Heightened Def Con from 0.000758792 to 0.000758792
Heightened Def Con from 0.000761439 to 0.000761439
Heightened Def Con from 0.000761441 to 0.000761441
Heightened Def Con from 0.000763794 to 0.000763795
Heightened Def Con from 0.00076644 to 0.00076644
Heightened Def Con from 0.000766441 to 0.000766443
Heightened Def Con from 0.000768793 to 0.000768793
Heightened Def Con from 0.000771442 to 0.000771443
Heightened Def Con from 0.000773794 to 0.000773794
Heightened Def Con from 0.000773797 to 0.000773816
Heightened Def Con from 0.000776442 to 0.000776443
Heightened Def Con from 0.00077879 to 0.00077879
Heightened Def Con from 0.000778793 to 0.000778812
Heightened Def Con from 0.000781443 to 0.000781444
Heightened Def Con from 0.000783792 to 0.000783792
Heightened Def Con from 0.000783795 to 0.000783813
Heightened Def Con from 0.000786443 to 0.000786444
Heightened Def Con from 0.000788787 to 0.000788788
Heightened Def Con from 0.000791443 to 0.000791443
Heightened Def Con from 0.000791445 to 0.000791445
Heightened Def Con from 0.000793788 to 0.000793789
Heightened Def Con from 0.000793792 to 0.000793811
Heightened Def Con from 0.000796443 to 0.000796443
Heightened Def Con from 0.000796444 to 0.000796444
Heightened Def Con from 0.000798788 to 0.000798788
Heightened Def Con from 0.000801445 to 0.000801446
Heightened Def Con from 0.000803793 to 0.000803793
Heightened Def Con from 0.000803796 to 0.000803814
Heightened Def Con from 0.000806444 to 0.000806444
Heightened Def Con from 0.000806446 to 0.000806446
Heightened Def Con from 0.000808791 to 0.000808791
Heightened Def Con from 0.000811446 to 0.000811446
Heightened Def Con from 0.000816445 to 0.000816445
Heightened Def Con from 0.000816447 to 0.000816447
Heightened Def Con from 0.000818791 to 0.000818791
Heightened Def Con from 0.000821447 to 0.000821447
Heightened Def Con from 0.000823791 to 0.000823791
Heightened Def Con from 0.000823794 to 0.000823812
Heightened Def Con from 0.000826445 to 0.000826445
Heightened Def Con from 0.000826447 to 0.000826448
Heightened Def Con from 0.000828785 to 0.000828785
Heightened Def Con from 0.000828788 to 0.000828807
Heightened Def Con from 0.000831447 to 0.000831448
Heightened Def Con from 0.000833787 to 0.000833787
Heightened Def Con from 0.00083379 to 0.000833809
Heightened Def Con from 0.000836446 to 0.000836446
Heightened Def Con from 0.000836448 to 0.000836449
Heightened Def Con from 0.000838787 to 0.000838787
Heightened Def Con from 0.000841448 to 0.000841448
Heightened Def Con from 0.000843789 to 0.000843789
Heightened Def Con from 0.000843792 to 0.000843811
Heightened Def Con from 0.000846447 to 0.000846447
Heightened Def Con from 0.000846448 to 0.000846448
Heightened Def Con from 0.000848788 to 0.000848788
Heightened Def Con from 0.000848791 to 0.00084881
Heightened Def Con from 0.000851449 to 0.000851449
Heightened Def Con from 0.000853785 to 0.000853785
Heightened Def Con from 0.000856448 to 0.000856449
Heightened Def Con from 0.00085645 to 0.00085645
Heightened Def Con from 0.000858785 to 0.000858785
Heightened Def Con from 0.000858788 to 0.000858806
Heightened Def Con from 0.000861449 to 0.000861449
Heightened Def Con from 0.00086145 to 0.000861451
Heightened Def Con from 0.000863783 to 0.000863783
Heightened Def Con from 0.000866449 to 0.000866449
Heightened Def Con from 0.000866451 to 0.000866451
Heightened Def Con from 0.000868786 to 0.000868786
Heightened Def Con from 0.000868789 to 0.000868808
Heightened Def Con from 0.000871449 to 0.00087145
Heightened Def Con from 0.000871451 to 0.000871451
Heightened Def Con from 0.000873786 to 0.000873786
Heightened Def Con from 0.00087645 to 0.000876451
Heightened Def Con from 0.000876452 to 0.000876452
Heightened Def Con from 0.000878781 to 0.000878781
Heightened Def Con from 0.000881451 to 0.000881452
Heightened Def Con from 0.000881453 to 0.000881453
Heightened Def Con from 0.000883782 to 0.000883782
Heightened Def Con from 0.000883785 to 0.000883803
Heightened Def Con from 0.000886453 to 0.000886453
Heightened Def Con from 0.000888784 to 0.000888784
Heightened Def Con from 0.000891452 to 0.000891452
Heightened Def Con from 0.000893778 to 0.000893778
Heightened Def Con from 0.000896452 to 0.000896453
Heightened Def Con from 0.000896454 to 0.000896454
Heightened Def Con from 0.00089878 to 0.00089878
Heightened Def Con from 0.000901452 to 0.000901453
Heightened Def Con from 0.000901454 to 0.000901455
Heightened Def Con from 0.000903783 to 0.000903783
Heightened Def Con from 0.000906453 to 0.000906454
Heightened Def Con from 0.000906454 to 0.000906454
Heightened Def Con from 0.00090878 to 0.00090878
Heightened Def Con from 0.000911453 to 0.000911453
Heightened Def Con from 0.000911455 to 0.000911455
Heightened Def Con from 0.000913781 to 0.000913782
Heightened Def Con from 0.000916453 to 0.000916453
Heightened Def Con from 0.000916455 to 0.000916456
Heightened Def Con from 0.000918778 to 0.000918778
Heightened Def Con from 0.000918782 to 0.0009188
Heightened Def Con from 0.000921454 to 0.000921455
Heightened Def Con from 0.000921456 to 0.000921456
Heightened Def Con from 0.000923781 to 0.000923781
Heightened Def Con from 0.000923784 to 0.000923802
Heightened Def Con from 0.000926455 to 0.000926456
Heightened Def Con from 0.00092878 to 0.00092878
Heightened Def Con from 0.000931455 to 0.000931456
Heightened Def Con from 0.000931456 to 0.000931457
Heightened Def Con from 0.000933776 to 0.000933776
Heightened Def Con from 0.000936455 to 0.000936456
Heightened Def Con from 0.000936457 to 0.000936457
Heightened Def Con from 0.00093878 to 0.00093878
Heightened Def Con from 0.000941455 to 0.000941456
Heightened Def Con from 0.000941457 to 0.000941457
Heightened Def Con from 0.000943776 to 0.000943776
Heightened Def Con from 0.000946458 to 0.000946458
Heightened Def Con from 0.000948778 to 0.000948779
Heightened Def Con from 0.000951456 to 0.000951457
Heightened Def Con from 0.000951458 to 0.000951458
Heightened Def Con from 0.000953776 to 0.000953776
Heightened Def Con from 0.000956457 to 0.000956457
Heightened Def Con from 0.000956459 to 0.000956459
Heightened Def Con from 0.000958774 to 0.000958774
Heightened Def Con from 0.000961458 to 0.000961458
Heightened Def Con from 0.00096146 to 0.00096146
Heightened Def Con from 0.000963774 to 0.000963775
Heightened Def Con from 0.000963778 to 0.000963796
Heightened Def Con from 0.00096646 to 0.000966461
Heightened Def Con from 0.000968777 to 0.000968778
Heightened Def Con from 0.00096878 to 0.000968798
Heightened Def Con from 0.000971458 to 0.000971459
Heightened Def Con from 0.00097146 to 0.00097146
Heightened Def Con from 0.000973776 to 0.000973776
Heightened Def Con from 0.00097378 to 0.000973798
Heightened Def Con from 0.000976459 to 0.000976459
Heightened Def Con from 0.00097646 to 0.000976461
Heightened Def Con from 0.000978771 to 0.000978771
Heightened Def Con from 0.000981458 to 0.000981459
Heightened Def Con from 0.00098146 to 0.00098146
Heightened Def Con from 0.000983772 to 0.000983772
Heightened Def Con from 0.000986461 to 0.000986461
Heightened Def Con from 0.000988771 to 0.000988771
Heightened Def Con from 0.000991461 to 0.000991461
Heightened Def Con from 0.000993773 to 0.000993773
Heightened Def Con from 0.000996461 to 0.000996461
Heightened Def Con from 0.000998773 to 0.000998774
Heightened Def Con from 0.000998776 to 0.000998794
Heightened Def Con from 0.00100146 to 0.00100146
Heightened Def Con from 0.00100146 to 0.00100146
Heightened Def Con from 0.00100377 to 0.00100377
Heightened Def Con from 0.00100646 to 0.00100646
Heightened Def Con from 0.00100646 to 0.00100646
Heightened Def Con from 0.00100877 to 0.00100877
Heightened Def Con from 0.00100878 to 0.0010088
Heightened Def Con from 0.00101146 to 0.00101146
Heightened Def Con from 0.00101146 to 0.00101146
Heightened Def Con from 0.00101377 to 0.00101377
Heightened Def Con from 0.00101646 to 0.00101646
Heightened Def Con from 0.00101646 to 0.00101646
Heightened Def Con from 0.00101877 to 0.00101877
Heightened Def Con from 0.00101877 to 0.00101879
Heightened Def Con from 0.00102146 to 0.00102146
Heightened Def Con from 0.00102146 to 0.00102146
Heightened Def Con from 0.00102377 to 0.00102377
Heightened Def Con from 0.00102646 to 0.00102646
Heightened Def Con from 0.00102646 to 0.00102646
Heightened Def Con from 0.00102877 to 0.00102877
Heightened Def Con from 0.00103146 to 0.00103147
Heightened Def Con from 0.00103377 to 0.00103377
Heightened Def Con from 0.00103377 to 0.00103379
Heightened Def Con from 0.00103646 to 0.00103646
Heightened Def Con from 0.00103647 to 0.00103647
Heightened Def Con from 0.00103877 to 0.00103877
Heightened Def Con from 0.00103877 to 0.00103879
Heightened Def Con from 0.00104146 to 0.00104146
Heightened Def Con from 0.00104147 to 0.00104147
Heightened Def Con from 0.00104377 to 0.00104377
Heightened Def Con from 0.00104646 to 0.00104647
Heightened Def Con from 0.00104647 to 0.00104647
Heightened Def Con from 0.00104877 to 0.00104877
Heightened Def Con from 0.00105147 to 0.00105147
Heightened Def Con from 0.00105377 to 0.00105377
Heightened Def Con from 0.00105647 to 0.00105647
Heightened Def Con from 0.00105877 to 0.00105877
Heightened Def Con from 0.00106147 to 0.00106147
Heightened Def Con from 0.00106377 to 0.00106377
Heightened Def Con from 0.00106647 to 0.00106647
Heightened Def Con from 0.00106647 to 0.00106647
Heightened Def Con from 0.00106877 to 0.00106877
Heightened Def Con from 0.00107147 to 0.00107147
Heightened Def Con from 0.00107147 to 0.00107147
Heightened Def Con from 0.00107377 to 0.00107377
Heightened Def Con from 0.00107647 to 0.00107647
Heightened Def Con from 0.00107647 to 0.00107647
Heightened Def Con from 0.00107877 to 0.00107877
Heightened Def Con from 0.00107877 to 0.00107879
Heightened Def Con from 0.00108147 to 0.00108147
Heightened Def Con from 0.00108377 to 0.00108377
Heightened Def Con from 0.00108647 to 0.00108647
Heightened Def Con from 0.00108647 to 0.00108647
Heightened Def Con from 0.00108877 to 0.00108877
Heightened Def Con from 0.00108877 to 0.00108879
Heightened Def Con from 0.00109147 to 0.00109147
Heightened Def Con from 0.00109377 to 0.00109377
Heightened Def Con from 0.00109647 to 0.00109647
Heightened Def Con from 0.00109877 to 0.00109877
Heightened Def Con from 0.00110147 to 0.00110147
Heightened Def Con from 0.00110147 to 0.00110147
Heightened Def Con from 0.00110376 to 0.00110377
Heightened Def Con from 0.00110377 to 0.00110379
Heightened Def Con from 0.00110647 to 0.00110647
Heightened Def Con from 0.00110876 to 0.00110876
Heightened Def Con from 0.00110877 to 0.00110878
Heightened Def Con from 0.00111147 to 0.00111147
Heightened Def Con from 0.00111376 to 0.00111376
Heightened Def Con from 0.00111377 to 0.00111378
Heightened Def Con from 0.00111647 to 0.00111647
Heightened Def Con from 0.00111647 to 0.00111647
Heightened Def Con from 0.00111876 to 0.00111876
Heightened Def Con from 0.00112147 to 0.00112147
Heightened Def Con from 0.00112147 to 0.00112147
Heightened Def Con from 0.00112376 to 0.00112376
Heightened Def Con from 0.00112377 to 0.00112379
Heightened Def Con from 0.00112647 to 0.00112647
Heightened Def Con from 0.00112647 to 0.00112647
Heightened Def Con from 0.00112876 to 0.00112876
Heightened Def Con from 0.00112877 to 0.00112879
Heightened Def Con from 0.00113147 to 0.00113147
Heightened Def Con from 0.00113376 to 0.00113376
Heightened Def Con from 0.00113647 to 0.00113647
Heightened Def Con from 0.00113876 to 0.00113876
Heightened Def Con from 0.00114147 to 0.00114147
Heightened Def Con from 0.00114376 to 0.00114376
Heightened Def Con from 0.00114377 to 0.00114378
Heightened Def Con from 0.00114647 to 0.00114647
Heightened Def Con from 0.00114876 to 0.00114876
Heightened Def Con from 0.00115147 to 0.00115147
Heightened Def Con from 0.00115147 to 0.00115147
Heightened Def Con from 0.00115376 to 0.00115376
Heightened Def Con from 0.00115377 to 0.00115378
Heightened Def Con from 0.00115648 to 0.00115648
Heightened Def Con from 0.00115876 to 0.00115876
Heightened Def Con from 0.00116148 to 0.00116148
Heightened Def Con from 0.00116376 to 0.00116376
Heightened Def Con from 0.00116648 to 0.00116648
Heightened Def Con from 0.00116876 to 0.00116876
Heightened Def Con from 0.00117147 to 0.00117148
Heightened Def Con from 0.00117148 to 0.00117148
Heightened Def Con from 0.00117376 to 0.00117376
Heightened Def Con from 0.00117376 to 0.00117378
Heightened Def Con from 0.00117648 to 0.00117648
Heightened Def Con from 0.00117648 to 0.00117648
Heightened Def Con from 0.00117876 to 0.00117876
Heightened Def Con from 0.00118147 to 0.00118148
Heightened Def Con from 0.00118148 to 0.00118148
Heightened Def Con from 0.00118376 to 0.00118376
Heightened Def Con from 0.00118376 to 0.00118378
Heightened Def Con from 0.00118648 to 0.00118648
Heightened Def Con from 0.00118876 to 0.00118876
Heightened Def Con from 0.00119148 to 0.00119148
Heightened Def Con from 0.00119148 to 0.00119148
Heightened Def Con from 0.00119376 to 0.00119376
Heightened Def Con from 0.00119648 to 0.00119648
Heightened Def Con from 0.00119876 to 0.00119876
Heightened Def Con from 0.00119876 to 0.00119878
Heightened Def Con from 0.00120148 to 0.00120148
Heightened Def Con from 0.00120376 to 0.00120376
Heightened Def Con from 0.00120648 to 0.00120648
Heightened Def Con from 0.00120876 to 0.00120876
Heightened Def Con from 0.00121148 to 0.00121148
Heightened Def Con from 0.00121376 to 0.00121376
Heightened Def Con from 0.00121648 to 0.00121648
Heightened Def Con from 0.00121648 to 0.00121648
Heightened Def Con from 0.00121875 to 0.00121875
Heightened Def Con from 0.00122148 to 0.00122148
Heightened Def Con from 0.00122375 to 0.00122375
Heightened Def Con from 0.00122376 to 0.00122378
Heightened Def Con from 0.00122648 to 0.00122648
Heightened Def Con from 0.00122875 to 0.00122875
Heightened Def Con from 0.00123148 to 0.00123148
Heightened Def Con from 0.00123148 to 0.00123148
Heightened Def Con from 0.00123375 to 0.00123375
Heightened Def Con from 0.00123376 to 0.00123378
Heightened Def Con from 0.00123648 to 0.00123648
Heightened Def Con from 0.00123648 to 0.00123648
Heightened Def Con from 0.00123876 to 0.00123876
Heightened Def Con from 0.00123876 to 0.00123878
Heightened Def Con from 0.00124148 to 0.00124148
Heightened Def Con from 0.00124375 to 0.00124375
Heightened Def Con from 0.00124376 to 0.00124377
Heightened Def Con from 0.00124648 to 0.00124648
Heightened Def Con from 0.00124648 to 0.00124648
Heightened Def Con from 0.00124876 to 0.00124876
Heightened Def Con from 0.00124876 to 0.00124878
Heightened Def Con from 0.00125148 to 0.00125148
Heightened Def Con from 0.00125148 to 0.00125148
Heightened Def Con from 0.00125375 to 0.00125375
Heightened Def Con from 0.00125376 to 0.00125377
Heightened Def Con from 0.00125648 to 0.00125648
Heightened Def Con from 0.00125876 to 0.00125876
Heightened Def Con from 0.00125876 to 0.00125878
Heightened Def Con from 0.00126148 to 0.00126148
Heightened Def Con from 0.00126148 to 0.00126148
Heightened Def Con from 0.00126375 to 0.00126375
Heightened Def Con from 0.00126648 to 0.00126648
Heightened Def Con from 0.00126875 to 0.00126875
Heightened Def Con from 0.00127148 to 0.00127148
Heightened Def Con from 0.00127375 to 0.00127375
Heightened Def Con from 0.00127375 to 0.00127377
Heightened Def Con from 0.00127648 to 0.00127648
Heightened Def Con from 0.00127875 to 0.00127875
Heightened Def Con from 0.00127875 to 0.00127877
Heightened Def Con from 0.00128148 to 0.00128148
Heightened Def Con from 0.00128375 to 0.00128375
Heightened Def Con from 0.00128375 to 0.00128377
Heightened Def Con from 0.00128648 to 0.00128648
Heightened Def Con from 0.00128875 to 0.00128875
Heightened Def Con from 0.00128875 to 0.00128877
Heightened Def Con from 0.00129148 to 0.00129148
Heightened Def Con from 0.00129149 to 0.00129149
Heightened Def Con from 0.00129375 to 0.00129375
Heightened Def Con from 0.00129376 to 0.00129377
Heightened Def Con from 0.00129649 to 0.00129649
Heightened Def Con from 0.00129875 to 0.00129875
Heightened Def Con from 0.00129875 to 0.00129877
Heightened Def Con from 0.00130149 to 0.00130149
Heightened Def Con from 0.00130375 to 0.00130375
Heightened Def Con from 0.00130648 to 0.00130649
Heightened Def Con from 0.00130649 to 0.00130649
Heightened Def Con from 0.00130875 to 0.00130875
Heightened Def Con from 0.00130875 to 0.00130877
Heightened Def Con from 0.00131149 to 0.00131149
Heightened Def Con from 0.00131375 to 0.00131375
Heightened Def Con from 0.00131375 to 0.00131377
Heightened Def Con from 0.00131649 to 0.00131649
Heightened Def Con from 0.00131875 to 0.00131875
Heightened Def Con from 0.00131875 to 0.00131877
Heightened Def Con from 0.00132149 to 0.00132149
Heightened Def Con from 0.00132375 to 0.00132375
Heightened Def Con from 0.00132375 to 0.00132377
Heightened Def Con from 0.00132649 to 0.00132649
Heightened Def Con from 0.00132875 to 0.00132875
Heightened Def Con from 0.00132875 to 0.00132877
Heightened Def Con from 0.00133149 to 0.00133149
Heightened Def Con from 0.00133375 to 0.00133375
Heightened Def Con from 0.00133375 to 0.00133377
Heightened Def Con from 0.00133649 to 0.00133649
Heightened Def Con from 0.00133649 to 0.00133649
Heightened Def Con from 0.00133874 to 0.00133875
Heightened Def Con from 0.00133875 to 0.00133877
Heightened Def Con from 0.00134149 to 0.00134149
Heightened Def Con from 0.00134374 to 0.00134374
Heightened Def Con from 0.00134375 to 0.00134377
Heightened Def Con from 0.00134649 to 0.00134649
Heightened Def Con from 0.00134649 to 0.00134649
Heightened Def Con from 0.00134875 to 0.00134875
Heightened Def Con from 0.00134875 to 0.00134877
Heightened Def Con from 0.00135149 to 0.00135149
Heightened Def Con from 0.00135149 to 0.00135149
Heightened Def Con from 0.00135374 to 0.00135374
Heightened Def Con from 0.00135375 to 0.00135377
Heightened Def Con from 0.00135649 to 0.00135649
Heightened Def Con from 0.00135649 to 0.00135649
Heightened Def Con from 0.00135875 to 0.00135875
Heightened Def Con from 0.00135875 to 0.00135877
Heightened Def Con from 0.00136149 to 0.00136149
Heightened Def Con from 0.00136375 to 0.00136375
Heightened Def Con from 0.00136375 to 0.00136377
Heightened Def Con from 0.00136649 to 0.00136649
Heightened Def Con from 0.00136649 to 0.00136649
Heightened Def Con from 0.00136874 to 0.00136874
Heightened Def Con from 0.00136875 to 0.00136876
Heightened Def Con from 0.00137149 to 0.00137149
Heightened Def Con from 0.00137374 to 0.00137374
Heightened Def Con from 0.00137649 to 0.00137649
Heightened Def Con from 0.00137649 to 0.00137649
Heightened Def Con from 0.00137874 to 0.00137874
Heightened Def Con from 0.00138149 to 0.00138149
Heightened Def Con from 0.00138374 to 0.00138374
Heightened Def Con from 0.00138649 to 0.00138649
Heightened Def Con from 0.00138649 to 0.00138649
Heightened Def Con from 0.00138875 to 0.00138875
Heightened Def Con from 0.00138875 to 0.00138877
Heightened Def Con from 0.00139149 to 0.00139149
Heightened Def Con from 0.00139149 to 0.00139149
Heightened Def Con from 0.00139375 to 0.00139375
Heightened Def Con from 0.00139375 to 0.00139377
Heightened Def Con from 0.00139649 to 0.00139649
Heightened Def Con from 0.00139874 to 0.00139874
Heightened Def Con from 0.00140149 to 0.00140149
Heightened Def Con from 0.00140149 to 0.00140149
Heightened Def Con from 0.00140374 to 0.00140374
Heightened Def Con from 0.00140649 to 0.00140649
Heightened Def Con from 0.00140649 to 0.00140649
Heightened Def Con from 0.00140874 to 0.00140874
Heightened Def Con from 0.00141149 to 0.00141149
Heightened Def Con from 0.00141374 to 0.00141375
Heightened Def Con from 0.00141649 to 0.00141649
Heightened Def Con from 0.00141874 to 0.00141874
Heightened Def Con from 0.00141875 to 0.00141876
Heightened Def Con from 0.00142374 to 0.00142374
Heightened Def Con from 0.00142374 to 0.00142376
Heightened Def Con from 0.0014265 to 0.0014265
Heightened Def Con from 0.00142874 to 0.00142874
Heightened Def Con from 0.0014315 to 0.0014315
Heightened Def Con from 0.00143374 to 0.00143374
Heightened Def Con from 0.00143649 to 0.00143649
Heightened Def Con from 0.0014365 to 0.0014365
Heightened Def Con from 0.00143874 to 0.00143874
Heightened Def Con from 0.00144149 to 0.0014415
Heightened Def Con from 0.00144374 to 0.00144374
Heightened Def Con from 0.0014465 to 0.0014465
Heightened Def Con from 0.00144874 to 0.00144874
Heightened Def Con from 0.00145149 to 0.00145149
Heightened Def Con from 0.0014515 to 0.0014515
Heightened Def Con from 0.00145373 to 0.00145373
Heightened Def Con from 0.0014565 to 0.0014565
Heightened Def Con from 0.00145874 to 0.00145874
Heightened Def Con from 0.00146374 to 0.00146374
Heightened Def Con from 0.0014665 to 0.0014665
Heightened Def Con from 0.00146874 to 0.00146874
Heightened Def Con from 0.0014715 to 0.0014715
Heightened Def Con from 0.00147373 to 0.00147373
Heightened Def Con from 0.0014765 to 0.0014765
Heightened Def Con from 0.00147874 to 0.00147874
Heightened Def Con from 0.0014815 to 0.0014815
Heightened Def Con from 0.00148374 to 0.00148374
Heightened Def Con from 0.0014865 to 0.0014865
Heightened Def Con from 0.0014865 to 0.0014865
Heightened Def Con from 0.00148874 to 0.00148874
Heightened Def Con from 0.0014915 to 0.0014915
Heightened Def Con from 0.0014915 to 0.0014915
Heightened Def Con from 0.00149374 to 0.00149374
Heightened Def Con from 0.0014965 to 0.0014965
Heightened Def Con from 0.00149873 to 0.00149873
Heightened Def Con from 0.0015015 to 0.0015015
Heightened Def Con from 0.0015015 to 0.0015015
Heightened Def Con from 0.00150373 to 0.00150373
Heightened Def Con from 0.0015065 to 0.0015065
Heightened Def Con from 0.00150874 to 0.00150874
Heightened Def Con from 0.0015115 to 0.0015115
Heightened Def Con from 0.00151374 to 0.00151374
Heightened Def Con from 0.0015165 to 0.0015165
Heightened Def Con from 0.0015165 to 0.0015165
Heightened Def Con from 0.00151874 to 0.00151874
Heightened Def Con from 0.0015215 to 0.0015215
Heightened Def Con from 0.00152374 to 0.00152374
Heightened Def Con from 0.00152374 to 0.00152376
Heightened Def Con from 0.0015265 to 0.0015265
Heightened Def Con from 0.0015265 to 0.0015265
Heightened Def Con from 0.00152874 to 0.00152874
Heightened Def Con from 0.0015315 to 0.0015315
Heightened Def Con from 0.00153373 to 0.00153373
Heightened Def Con from 0.0015365 to 0.0015365
Heightened Def Con from 0.0015365 to 0.0015365
Heightened Def Con from 0.00153873 to 0.00153873
Heightened Def Con from 0.0015415 to 0.0015415
Heightened Def Con from 0.00154373 to 0.00154373
Heightened Def Con from 0.0015465 to 0.0015465
Heightened Def Con from 0.0015465 to 0.0015465
Heightened Def Con from 0.00154873 to 0.00154873
Heightened Def Con from 0.0015515 to 0.0015515
Heightened Def Con from 0.00155373 to 0.00155373
Heightened Def Con from 0.0015565 to 0.0015565
Heightened Def Con from 0.0015565 to 0.0015565
Heightened Def Con from 0.00155873 to 0.00155874
Heightened Def Con from 0.0015615 to 0.0015615
Heightened Def Con from 0.0015615 to 0.0015615
Heightened Def Con from 0.00156373 to 0.00156373
Heightened Def Con from 0.0015665 to 0.0015665
Heightened Def Con from 0.00156874 to 0.00156874
Heightened Def Con from 0.0015715 to 0.0015715
Heightened Def Con from 0.0015715 to 0.0015715
Heightened Def Con from 0.00157373 to 0.00157373
Heightened Def Con from 0.0015765 to 0.0015765
Heightened Def Con from 0.00157873 to 0.00157873
Heightened Def Con from 0.0015815 to 0.0015815
Heightened Def Con from 0.0015815 to 0.0015815
Heightened Def Con from 0.00158373 to 0.00158373
Heightened Def Con from 0.0015865 to 0.0015865
Heightened Def Con from 0.0015865 to 0.0015865
Heightened Def Con from 0.00158873 to 0.00158873
Heightened Def Con from 0.0015915 to 0.0015915
Heightened Def Con from 0.0015915 to 0.0015915
Heightened Def Con from 0.00159373 to 0.00159373
Heightened Def Con from 0.0015965 to 0.0015965
Heightened Def Con from 0.00159873 to 0.00159873
Heightened Def Con from 0.0016015 to 0.0016015
Heightened Def Con from 0.0016015 to 0.0016015
Heightened Def Con from 0.00160373 to 0.00160373
Heightened Def Con from 0.00160651 to 0.00160651
Heightened Def Con from 0.00160873 to 0.00160873
Heightened Def Con from 0.0016115 to 0.0016115
Heightened Def Con from 0.00161151 to 0.00161151
Heightened Def Con from 0.00161373 to 0.00161373
Heightened Def Con from 0.0016165 to 0.0016165
Heightened Def Con from 0.00161651 to 0.00161651
Heightened Def Con from 0.00161873 to 0.00161873
Heightened Def Con from 0.00162151 to 0.00162151
Heightened Def Con from 0.00162373 to 0.00162373
Heightened Def Con from 0.0016265 to 0.00162651
Heightened Def Con from 0.00162651 to 0.00162651
Heightened Def Con from 0.00162873 to 0.00162873
Heightened Def Con from 0.0016315 to 0.00163151
Heightened Def Con from 0.00163151 to 0.00163151
Heightened Def Con from 0.00163373 to 0.00163373
Heightened Def Con from 0.00163651 to 0.00163651
Heightened Def Con from 0.00163873 to 0.00163873
Heightened Def Con from 0.0016415 to 0.00164151
Heightened Def Con from 0.00164151 to 0.00164151
Heightened Def Con from 0.00164373 to 0.00164373
Heightened Def Con from 0.00164651 to 0.00164651
Heightened Def Con from 0.00164651 to 0.00164651
Heightened Def Con from 0.00164873 to 0.00164873
Heightened Def Con from 0.00165151 to 0.00165151
Heightened Def Con from 0.00165373 to 0.00165373
Heightened Def Con from 0.00165651 to 0.00165651
Heightened Def Con from 0.00165873 to 0.00165873
Heightened Def Con from 0.00166151 to 0.00166151
Heightened Def Con from 0.00166373 to 0.00166373
Heightened Def Con from 0.00166651 to 0.00166651
Heightened Def Con from 0.00166873 to 0.00166873
Heightened Def Con from 0.00167151 to 0.00167151
Heightened Def Con from 0.00167151 to 0.00167151
Heightened Def Con from 0.00167373 to 0.00167373
Heightened Def Con from 0.00167651 to 0.00167651
Heightened Def Con from 0.00167872 to 0.00167872
Heightened Def Con from 0.00168151 to 0.00168151
Heightened Def Con from 0.00168373 to 0.00168373
Heightened Def Con from 0.00168651 to 0.00168651
Heightened Def Con from 0.00168873 to 0.00168873
Heightened Def Con from 0.00169151 to 0.00169151
Heightened Def Con from 0.00169372 to 0.00169372
Heightened Def Con from 0.00169651 to 0.00169651
Heightened Def Con from 0.00169872 to 0.00169872
Heightened Def Con from 0.00170151 to 0.00170151
Heightened Def Con from 0.00170372 to 0.00170372
Heightened Def Con from 0.00170651 to 0.00170651
Heightened Def Con from 0.00170873 to 0.00170873
Heightened Def Con from 0.00171151 to 0.00171151
Heightened Def Con from 0.00171151 to 0.00171151
Heightened Def Con from 0.00171372 to 0.00171373
Heightened Def Con from 0.00171651 to 0.00171651
Heightened Def Con from 0.00171872 to 0.00171872
Heightened Def Con from 0.00172151 to 0.00172151
Heightened Def Con from 0.00172372 to 0.00172372
Heightened Def Con from 0.00172651 to 0.00172651
Heightened Def Con from 0.00172872 to 0.00172872
Heightened Def Con from 0.00173151 to 0.00173151
Heightened Def Con from 0.00173151 to 0.00173151
Heightened Def Con from 0.00173373 to 0.00173373
Heightened Def Con from 0.00173651 to 0.00173651
Heightened Def Con from 0.00173651 to 0.00173651
Heightened Def Con from 0.00173872 to 0.00173872
Heightened Def Con from 0.00174151 to 0.00174151
Heightened Def Con from 0.00174151 to 0.00174151
Heightened Def Con from 0.00174372 to 0.00174372
Heightened Def Con from 0.00174651 to 0.00174651
Heightened Def Con from 0.00174651 to 0.00174651
Heightened Def Con from 0.00174872 to 0.00174872
Heightened Def Con from 0.00175151 to 0.00175151
Heightened Def Con from 0.00175151 to 0.00175151
Heightened Def Con from 0.00175373 to 0.00175373
Heightened Def Con from 0.00175651 to 0.00175651
Heightened Def Con from 0.00175872 to 0.00175873
Heightened Def Con from 0.00176151 to 0.00176151
Heightened Def Con from 0.00176151 to 0.00176152
Heightened Def Con from 0.00176372 to 0.00176372
Heightened Def Con from 0.00176651 to 0.00176651
Heightened Def Con from 0.00176872 to 0.00176872
Heightened Def Con from 0.00177151 to 0.00177151
Heightened Def Con from 0.00177151 to 0.00177151
Heightened Def Con from 0.00177372 to 0.00177372
Heightened Def Con from 0.00177651 to 0.00177651
Heightened Def Con from 0.00177651 to 0.00177651
Heightened Def Con from 0.00177872 to 0.00177872
Heightened Def Con from 0.00178151 to 0.00178151
Heightened Def Con from 0.00178151 to 0.00178151
Heightened Def Con from 0.00178651 to 0.00178651
Heightened Def Con from 0.00178651 to 0.00178651
Heightened Def Con from 0.00178872 to 0.00178872
Heightened Def Con from 0.00179151 to 0.00179151
Heightened Def Con from 0.00179372 to 0.00179372
Heightened Def Con from 0.00179651 to 0.00179652
Heightened Def Con from 0.00179872 to 0.00179872
Heightened Def Con from 0.00180151 to 0.00180151
Heightened Def Con from 0.00180151 to 0.00180151
Heightened Def Con from 0.00180372 to 0.00180372
Heightened Def Con from 0.00180652 to 0.00180652
Heightened Def Con from 0.00180872 to 0.00180872
Heightened Def Con from 0.00181152 to 0.00181152
Heightened Def Con from 0.00181372 to 0.00181372
Heightened Def Con from 0.00181652 to 0.00181652
Heightened Def Con from 0.00181872 to 0.00181872
Heightened Def Con from 0.00182151 to 0.00182151
Heightened Def Con from 0.00182152 to 0.00182152
Heightened Def Con from 0.00182371 to 0.00182371
Heightened Def Con from 0.00182652 to 0.00182652
Heightened Def Con from 0.00182872 to 0.00182872
Heightened Def Con from 0.00183151 to 0.00183152
Heightened Def Con from 0.00183152 to 0.00183152
Heightened Def Con from 0.00183372 to 0.00183372
Heightened Def Con from 0.00183651 to 0.00183652
Heightened Def Con from 0.00183652 to 0.00183652
Heightened Def Con from 0.00183872 to 0.00183872
Heightened Def Con from 0.00184151 to 0.00184152
Heightened Def Con from 0.00184152 to 0.00184152
Heightened Def Con from 0.00184372 to 0.00184372
Heightened Def Con from 0.00184652 to 0.00184652
Heightened Def Con from 0.00184872 to 0.00184872
Heightened Def Con from 0.00185152 to 0.00185152
Heightened Def Con from 0.00185152 to 0.00185152
Heightened Def Con from 0.00185372 to 0.00185372
Heightened Def Con from 0.00185651 to 0.00185652
Heightened Def Con from 0.00185652 to 0.00185652
Heightened Def Con from 0.00185872 to 0.00185872
Heightened Def Con from 0.00186152 to 0.00186152
Heightened Def Con from 0.00186372 to 0.00186372
Heightened Def Con from 0.00186652 to 0.00186652
Heightened Def Con from 0.00186652 to 0.00186652
Heightened Def Con from 0.00186872 to 0.00186872
Heightened Def Con from 0.00187152 to 0.00187152
Heightened Def Con from 0.00187372 to 0.00187372
Heightened Def Con from 0.00187652 to 0.00187652
Heightened Def Con from 0.00187872 to 0.00187872
Heightened Def Con from 0.00188152 to 0.00188152
Heightened Def Con from 0.00188152 to 0.00188152
Heightened Def Con from 0.00188371 to 0.00188371
Heightened Def Con from 0.00188652 to 0.00188652
Heightened Def Con from 0.00188872 to 0.00188872
Heightened Def Con from 0.00189371 to 0.00189371
Heightened Def Con from 0.00189652 to 0.00189652
Heightened Def Con from 0.00189872 to 0.00189872
Heightened Def Con from 0.00190152 to 0.00190152
Heightened Def Con from 0.00190372 to 0.00190372
Heightened Def Con from 0.00190652 to 0.00190652
Heightened Def Con from 0.00190872 to 0.00190872
Heightened Def Con from 0.00191152 to 0.00191152
Heightened Def Con from 0.00191152 to 0.00191152
Heightened Def Con from 0.00191371 to 0.00191371
Heightened Def Con from 0.00191652 to 0.00191652
Heightened Def Con from 0.00191652 to 0.00191652
Heightened Def Con from 0.00191872 to 0.00191872
Heightened Def Con from 0.00192152 to 0.00192152
Heightened Def Con from 0.00192371 to 0.00192371
Heightened Def Con from 0.00192652 to 0.00192652
Heightened Def Con from 0.00192652 to 0.00192652
Heightened Def Con from 0.00192871 to 0.00192871
Heightened Def Con from 0.00193152 to 0.00193152
Heightened Def Con from 0.00193372 to 0.00193372
Heightened Def Con from 0.00193652 to 0.00193652
Heightened Def Con from 0.00193871 to 0.00193871
Heightened Def Con from 0.00194152 to 0.00194152
Heightened Def Con from 0.00194152 to 0.00194152
Heightened Def Con from 0.00194371 to 0.00194371
Heightened Def Con from 0.00194652 to 0.00194652
Heightened Def Con from 0.00194872 to 0.00194872
Heightened Def Con from 0.00195152 to 0.00195152
Heightened Def Con from 0.00195152 to 0.00195152
Heightened Def Con from 0.00195371 to 0.00195371
Heightened Def Con from 0.00195652 to 0.00195652
Heightened Def Con from 0.00195871 to 0.00195871
Heightened Def Con from 0.00196152 to 0.00196152
Heightened Def Con from 0.00196371 to 0.00196371
Heightened Def Con from 0.00196652 to 0.00196652
Heightened Def Con from 0.00196871 to 0.00196871
Heightened Def Con from 0.00197152 to 0.00197152
Heightened Def Con from 0.00197152 to 0.00197152
Heightened Def Con from 0.00197371 to 0.00197371
Heightened Def Con from 0.00197652 to 0.00197652
Heightened Def Con from 0.00197652 to 0.00197652
Heightened Def Con from 0.00197871 to 0.00197871
Heightened Def Con from 0.00198152 to 0.00198152
Heightened Def Con from 0.00198371 to 0.00198371
Heightened Def Con from 0.00198652 to 0.00198652
Heightened Def Con from 0.00198871 to 0.00198871
Heightened Def Con from 0.00199152 to 0.00199152
Heightened Def Con from 0.00199371 to 0.00199371
Heightened Def Con from 0.00199652 to 0.00199652
Heightened Def Con from 0.00199652 to 0.00199652
Heightened Def Con from 0.00199871 to 0.00199871
Heightened Def Con from 0.00200152 to 0.00200152
Heightened Def Con from 0.00200371 to 0.00200371
Heightened Def Con from 0.00200652 to 0.00200652
Heightened Def Con from 0.00200652 to 0.00200652
Heightened Def Con from 0.00200871 to 0.00200871
Heightened Def Con from 0.00201152 to 0.00201152
Heightened Def Con from 0.00201371 to 0.00201371
Heightened Def Con from 0.00201652 to 0.00201652
Heightened Def Con from 0.00201652 to 0.00201652
Heightened Def Con from 0.00201871 to 0.00201871
Heightened Def Con from 0.00202152 to 0.00202152
Heightened Def Con from 0.00202152 to 0.00202152
Heightened Def Con from 0.00202371 to 0.00202371
Heightened Def Con from 0.00202652 to 0.00202652
Heightened Def Con from 0.00202871 to 0.00202872
Heightened Def Con from 0.00203152 to 0.00203152
Heightened Def Con from 0.00203152 to 0.00203152
Heightened Def Con from 0.00203371 to 0.00203371
Heightened Def Con from 0.00203652 to 0.00203652
Heightened Def Con from 0.00203871 to 0.00203871
Heightened Def Con from 0.00204152 to 0.00204152
Heightened Def Con from 0.00204371 to 0.00204371
Heightened Def Con from 0.00204652 to 0.00204653
Heightened Def Con from 0.00204871 to 0.00204871
Heightened Def Con from 0.00205152 to 0.00205152
Heightened Def Con from 0.00205152 to 0.00205152
Heightened Def Con from 0.00205371 to 0.00205371
Heightened Def Con from 0.00205652 to 0.00205652
Heightened Def Con from 0.00205871 to 0.00205871
Heightened Def Con from 0.00206152 to 0.00206152
Heightened Def Con from 0.00206153 to 0.00206153
Heightened Def Con from 0.00206371 to 0.00206371
Heightened Def Con from 0.00206652 to 0.00206652
Heightened Def Con from 0.00206653 to 0.00206653
Heightened Def Con from 0.00206871 to 0.00206871
Heightened Def Con from 0.00207152 to 0.00207152
Heightened Def Con from 0.00207371 to 0.00207371
Heightened Def Con from 0.00207652 to 0.00207653
Heightened Def Con from 0.00207871 to 0.00207871
Heightened Def Con from 0.00208152 to 0.00208152
Heightened Def Con from 0.00208153 to 0.00208153
Heightened Def Con from 0.00208371 to 0.00208371
Heightened Def Con from 0.00208652 to 0.00208652
Heightened Def Con from 0.00208653 to 0.00208653
Heightened Def Con from 0.00208871 to 0.00208871
Heightened Def Con from 0.00209152 to 0.00209152
Heightened Def Con from 0.00209153 to 0.00209153
Heightened Def Con from 0.00209371 to 0.00209371
Heightened Def Con from 0.00209652 to 0.00209652
Heightened Def Con from 0.00209653 to 0.00209653
Heightened Def Con from 0.00209871 to 0.00209871
Heightened Def Con from 0.00210152 to 0.00210152
Heightened Def Con from 0.00210153 to 0.00210153
Heightened Def Con from 0.00210371 to 0.00210371
Heightened Def Con from 0.00210653 to 0.00210653
Heightened Def Con from 0.00210871 to 0.00210871
Heightened Def Con from 0.00211153 to 0.00211153
Heightened Def Con from 0.00211371 to 0.00211371
Heightened Def Con from 0.00211653 to 0.00211653
Heightened Def Con from 0.00211871 to 0.00211871
Heightened Def Con from 0.00212152 to 0.00212152
Heightened Def Con from 0.00212153 to 0.00212153
Heightened Def Con from 0.00212371 to 0.00212371
Heightened Def Con from 0.00212653 to 0.00212653
Heightened Def Con from 0.00212871 to 0.00212872
Heightened Def Con from 0.00213153 to 0.00213153
Heightened Def Con from 0.0021337 to 0.00213371
Heightened Def Con from 0.00213653 to 0.00213653
Heightened Def Con from 0.00213871 to 0.00213871
Heightened Def Con from 0.00214152 to 0.00214153
Heightened Def Con from 0.00214153 to 0.00214153
Heightened Def Con from 0.00214371 to 0.00214371
Heightened Def Con from 0.00214652 to 0.00214653
Heightened Def Con from 0.00214653 to 0.00214653
Heightened Def Con from 0.00214871 to 0.00214871
Heightened Def Con from 0.00215152 to 0.00215153
Heightened Def Con from 0.00215153 to 0.00215153
Heightened Def Con from 0.00215371 to 0.00215371
Heightened Def Con from 0.00215652 to 0.00215653
Heightened Def Con from 0.00215653 to 0.00215653
Heightened Def Con from 0.00215871 to 0.00215871
Heightened Def Con from 0.00216152 to 0.00216153
Heightened Def Con from 0.00216153 to 0.00216153
Heightened Def Con from 0.00216371 to 0.00216371
Heightened Def Con from 0.00216653 to 0.00216653
Heightened Def Con from 0.00216871 to 0.00216871
Heightened Def Con from 0.00217152 to 0.00217153
Heightened Def Con from 0.00217153 to 0.00217153
Heightened Def Con from 0.0021737 to 0.0021737
Heightened Def Con from 0.00217653 to 0.00217653
Heightened Def Con from 0.0021787 to 0.0021787
Heightened Def Con from 0.00218152 to 0.00218153
Heightened Def Con from 0.00218153 to 0.00218153
Heightened Def Con from 0.0021837 to 0.00218371
Heightened Def Con from 0.00218653 to 0.00218653
Heightened Def Con from 0.00218871 to 0.00218871
Heightened Def Con from 0.00219152 to 0.00219153
Heightened Def Con from 0.00219153 to 0.00219153
Heightened Def Con from 0.0021937 to 0.0021937
Heightened Def Con from 0.00219653 to 0.00219653
Heightened Def Con from 0.00219871 to 0.00219871
Heightened Def Con from 0.00220153 to 0.00220153
Heightened Def Con from 0.00220153 to 0.00220153
Heightened Def Con from 0.0022037 to 0.0022037
Heightened Def Con from 0.00220653 to 0.00220653
Heightened Def Con from 0.00220871 to 0.00220871
Heightened Def Con from 0.00221153 to 0.00221153
Heightened Def Con from 0.00221153 to 0.00221153
Heightened Def Con from 0.0022137 to 0.0022137
Heightened Def Con from 0.00221653 to 0.00221653
Heightened Def Con from 0.00221653 to 0.00221653
Heightened Def Con from 0.00221871 to 0.00221871
Heightened Def Con from 0.00222153 to 0.00222153
Heightened Def Con from 0.0022237 to 0.0022237
Heightened Def Con from 0.00222653 to 0.00222653
Heightened Def Con from 0.00222653 to 0.00222653
Heightened Def Con from 0.00222871 to 0.00222871
Heightened Def Con from 0.00223153 to 0.00223153
Heightened Def Con from 0.0022337 to 0.0022337
Heightened Def Con from 0.00223653 to 0.00223653
Heightened Def Con from 0.00223871 to 0.00223871
Heightened Def Con from 0.00224153 to 0.00224153
Heightened Def Con from 0.00224371 to 0.00224371
Heightened Def Con from 0.00224653 to 0.00224653
Heightened Def Con from 0.00224653 to 0.00224653
Heightened Def Con from 0.00224871 to 0.00224871
Heightened Def Con from 0.00225153 to 0.00225153
Heightened Def Con from 0.00225371 to 0.00225371
Heightened Def Con from 0.00225653 to 0.00225653
Heightened Def Con from 0.00225653 to 0.00225653
Heightened Def Con from 0.00225871 to 0.00225871
Heightened Def Con from 0.00226153 to 0.00226153
Heightened Def Con from 0.00226371 to 0.00226371
Heightened Def Con from 0.00226653 to 0.00226653
Heightened Def Con from 0.00226871 to 0.00226871
Heightened Def Con from 0.00227153 to 0.00227153
Heightened Def Con from 0.00227153 to 0.00227153
Heightened Def Con from 0.0022737 to 0.0022737
Heightened Def Con from 0.00227653 to 0.00227653
Heightened Def Con from 0.00227871 to 0.00227871
Heightened Def Con from 0.00228153 to 0.00228153
Heightened Def Con from 0.00228153 to 0.00228153
Heightened Def Con from 0.00228371 to 0.00228371
Heightened Def Con from 0.00228653 to 0.00228653
Heightened Def Con from 0.00228653 to 0.00228653
Heightened Def Con from 0.00228871 to 0.00228871
Heightened Def Con from 0.00229153 to 0.00229153
Heightened Def Con from 0.00229153 to 0.00229153
Heightened Def Con from 0.0022937 to 0.0022937
Heightened Def Con from 0.00229653 to 0.00229653
Heightened Def Con from 0.00229653 to 0.00229653
Heightened Def Con from 0.00229871 to 0.00229871
Heightened Def Con from 0.00230153 to 0.00230153
Heightened Def Con from 0.00230153 to 0.00230153
Heightened Def Con from 0.00230371 to 0.00230371
Heightened Def Con from 0.00230653 to 0.00230653
Heightened Def Con from 0.00230653 to 0.00230653
Heightened Def Con from 0.00230871 to 0.00230871
Heightened Def Con from 0.00231153 to 0.00231153
Heightened Def Con from 0.0023137 to 0.0023137
Heightened Def Con from 0.00231653 to 0.00231653
Heightened Def Con from 0.0023187 to 0.0023187
Heightened Def Con from 0.00232153 to 0.00232153
Heightened Def Con from 0.00232153 to 0.00232153
Heightened Def Con from 0.00232371 to 0.00232371
Heightened Def Con from 0.00232653 to 0.00232653
Heightened Def Con from 0.00232871 to 0.00232871
Heightened Def Con from 0.00233153 to 0.00233153
Heightened Def Con from 0.00233371 to 0.00233371
Heightened Def Con from 0.00233653 to 0.00233653
Heightened Def Con from 0.00233653 to 0.00233653
Heightened Def Con from 0.00233871 to 0.00233871
Heightened Def Con from 0.00234153 to 0.00234153
Heightened Def Con from 0.0023437 to 0.00234371
Heightened Def Con from 0.00234653 to 0.00234653
Heightened Def Con from 0.00234871 to 0.00234871
Heightened Def Con from 0.00235153 to 0.00235153
Heightened Def Con from 0.0023537 to 0.0023537
Heightened Def Con from 0.00235871 to 0.00235871
Heightened Def Con from 0.00236153 to 0.00236153
Heightened Def Con from 0.0023637 to 0.0023637
Heightened Def Con from 0.00236653 to 0.00236653
Heightened Def Con from 0.00236871 to 0.00236871
Heightened Def Con from 0.00237153 to 0.00237153
Heightened Def Con from 0.00237371 to 0.00237371
Heightened Def Con from 0.00237653 to 0.00237653
Heightened Def Con from 0.00237653 to 0.00237653
Heightened Def Con from 0.00237871 to 0.00237871
Heightened Def Con from 0.00238153 to 0.00238153
Heightened Def Con from 0.00238153 to 0.00238153
Heightened Def Con from 0.0023837 to 0.0023837
Heightened Def Con from 0.00238653 to 0.00238653
Heightened Def Con from 0.00238653 to 0.00238653
Heightened Def Con from 0.0023887 to 0.0023887
Heightened Def Con from 0.00239153 to 0.00239153
Heightened Def Con from 0.00239153 to 0.00239153
Heightened Def Con from 0.0023937 to 0.0023937
Heightened Def Con from 0.00239653 to 0.00239653
Heightened Def Con from 0.00239653 to 0.00239653
Heightened Def Con from 0.00239871 to 0.00239871
Heightened Def Con from 0.00240153 to 0.00240153
Heightened Def Con from 0.00240153 to 0.00240153
Heightened Def Con from 0.0024037 to 0.0024037
Heightened Def Con from 0.00240653 to 0.00240653
Heightened Def Con from 0.00240653 to 0.00240653
Heightened Def Con from 0.0024087 to 0.0024087
Heightened Def Con from 0.00241153 to 0.00241153
Heightened Def Con from 0.0024137 to 0.0024137
Heightened Def Con from 0.00241653 to 0.00241653
Heightened Def Con from 0.00241653 to 0.00241653
Heightened Def Con from 0.0024187 to 0.00241871
Heightened Def Con from 0.00242153 to 0.00242153
Heightened Def Con from 0.0024237 to 0.0024237
Heightened Def Con from 0.00242653 to 0.00242653
Heightened Def Con from 0.00242653 to 0.00242653
Heightened Def Con from 0.00243153 to 0.00243153
Heightened Def Con from 0.00243371 to 0.00243371
Heightened Def Con from 0.00243653 to 0.00243653
Heightened Def Con from 0.00243653 to 0.00243653
Heightened Def Con from 0.0024387 to 0.0024387
Heightened Def Con from 0.00244153 to 0.00244153
Heightened Def Con from 0.00244371 to 0.00244371
Heightened Def Con from 0.00244653 to 0.00244653
Heightened Def Con from 0.00244653 to 0.00244653
Heightened Def Con from 0.0024487 to 0.0024487
Heightened Def Con from 0.00245153 to 0.00245153
Heightened Def Con from 0.00245153 to 0.00245153
Heightened Def Con from 0.00245371 to 0.00245371
Heightened Def Con from 0.00245653 to 0.00245653
Heightened Def Con from 0.00245653 to 0.00245653
Heightened Def Con from 0.0024587 to 0.0024587
Heightened Def Con from 0.00246153 to 0.00246153
Heightened Def Con from 0.00246653 to 0.00246653
Heightened Def Con from 0.0024687 to 0.0024687
Heightened Def Con from 0.00247153 to 0.00247153
Heightened Def Con from 0.0024737 to 0.0024737
Heightened Def Con from 0.00247653 to 0.00247653
Heightened Def Con from 0.00247653 to 0.00247653
Heightened Def Con from 0.0024787 to 0.0024787
Heightened Def Con from 0.00248153 to 0.00248153
Heightened Def Con from 0.00248153 to 0.00248153
Heightened Def Con from 0.0024837 to 0.0024837
Heightened Def Con from 0.00248653 to 0.00248653
Heightened Def Con from 0.0024887 to 0.0024887
Heightened Def Con from 0.00249153 to 0.00249153
Heightened Def Con from 0.0024937 to 0.0024937
Heightened Def Con from 0.00249653 to 0.00249653
Heightened Def Con from 0.00249871 to 0.00249871
Heightened Def Con from 0.00250153 to 0.00250153
Heightened Def Con from 0.00250153 to 0.00250153
Heightened Def Con from 0.0025037 to 0.0025037
Heightened Def Con from 0.00250653 to 0.00250653
Heightened Def Con from 0.0025087 to 0.0025087
Heightened Def Con from 0.00251153 to 0.00251153
Heightened Def Con from 0.00251153 to 0.00251153
Heightened Def Con from 0.0025137 to 0.0025137
Heightened Def Con from 0.00251653 to 0.00251653
Heightened Def Con from 0.00251871 to 0.00251871
Heightened Def Con from 0.00252153 to 0.00252153
Heightened Def Con from 0.00252153 to 0.00252153
Heightened Def Con from 0.0025237 to 0.0025237
Heightened Def Con from 0.00252653 to 0.00252653
Heightened Def Con from 0.00252871 to 0.00252871
Heightened Def Con from 0.00253153 to 0.00253153
Heightened Def Con from 0.0025337 to 0.0025337
Heightened Def Con from 0.00253653 to 0.00253653
Heightened Def Con from 0.0025387 to 0.0025387
Heightened Def Con from 0.00254153 to 0.00254153
Heightened Def Con from 0.00254153 to 0.00254153
Heightened Def Con from 0.0025437 to 0.0025437
Heightened Def Con from 0.00254653 to 0.00254653
Heightened Def Con from 0.00254653 to 0.00254653
Heightened Def Con from 0.0025487 to 0.0025487
Heightened Def Con from 0.00255153 to 0.00255153
Heightened Def Con from 0.0025537 to 0.0025537
Heightened Def Con from 0.00255653 to 0.00255653
Heightened Def Con from 0.0025587 to 0.0025587
Heightened Def Con from 0.00256153 to 0.00256153
Heightened Def Con from 0.0025637 to 0.0025637
Heightened Def Con from 0.00256653 to 0.00256653
Heightened Def Con from 0.00256871 to 0.00256871
Heightened Def Con from 0.00257153 to 0.00257153
Heightened Def Con from 0.0025737 to 0.0025737
Heightened Def Con from 0.00257653 to 0.00257653
Heightened Def Con from 0.00257871 to 0.00257871
Heightened Def Con from 0.00258153 to 0.00258153
Heightened Def Con from 0.00258153 to 0.00258153
Heightened Def Con from 0.00258371 to 0.00258371
Heightened Def Con from 0.00258653 to 0.00258653
Heightened Def Con from 0.00258653 to 0.00258653
Heightened Def Con from 0.00258871 to 0.00258871
Heightened Def Con from 0.00259153 to 0.00259153
Heightened Def Con from 0.00259153 to 0.00259153
Heightened Def Con from 0.0025937 to 0.0025937
Heightened Def Con from 0.00259653 to 0.00259653
Heightened Def Con from 0.0025987 to 0.0025987
Heightened Def Con from 0.00260153 to 0.00260153
Heightened Def Con from 0.00260153 to 0.00260153
Heightened Def Con from 0.00260371 to 0.00260371
Heightened Def Con from 0.00260653 to 0.00260653
Heightened Def Con from 0.00260653 to 0.00260653
Heightened Def Con from 0.0026087 to 0.0026087
Heightened Def Con from 0.00261153 to 0.00261153
Heightened Def Con from 0.00261153 to 0.00261153
Heightened Def Con from 0.0026137 to 0.0026137
Heightened Def Con from 0.00261653 to 0.00261653
Heightened Def Con from 0.00261871 to 0.00261871
Heightened Def Con from 0.00262153 to 0.00262153
Heightened Def Con from 0.0026237 to 0.0026237
Heightened Def Con from 0.00262653 to 0.00262653
Heightened Def Con from 0.0026287 to 0.0026287
Heightened Def Con from 0.00263153 to 0.00263153
Heightened Def Con from 0.00263153 to 0.00263153
Heightened Def Con from 0.00263371 to 0.00263371
Heightened Def Con from 0.00263653 to 0.00263653
Heightened Def Con from 0.00263653 to 0.00263653
Heightened Def Con from 0.00263871 to 0.00263871
Heightened Def Con from 0.00264153 to 0.00264153
Heightened Def Con from 0.00264153 to 0.00264153
[...]
Heightened Def Con from 0.0103338 to 0.0103338
Heightened Def Con from 0.0103338 to 0.0103339
Heightened Def Con from 0.0103364 to 0.0103364
Heightened Def Con from 0.0103364 to 0.0103364
Heightened Def Con from 0.0103388 to 0.0103388
Heightened Def Con from 0.0103414 to 0.0103414
Heightened Def Con from 0.0103438 to 0.0103438
Heightened Def Con from 0.0103464 to 0.0103464
Heightened Def Con from 0.0103488 to 0.0103488
Heightened Def Con from 0.0103514 to 0.0103514
Heightened Def Con from 0.0103538 to 0.0103538
Heightened Def Con from 0.0103564 to 0.0103564
Heightened Def Con from 0.0103588 to 0.0103588
Heightened Def Con from 0.0103588 to 0.0103589
Heightened Def Con from 0.0103614 to 0.0103614
Heightened Def Con from 0.0103638 to 0.0103638
Heightened Def Con from 0.0103664 to 0.0103664
Heightened Def Con from 0.0103688 to 0.0103688
Heightened Def Con from 0.0103714 to 0.0103714
Heightened Def Con from 0.0103714 to 0.0103714
Heightened Def Con from 0.0103738 to 0.0103738
Heightened Def Con from 0.0103738 to 0.0103739
Heightened Def Con from 0.0103764 to 0.0103764
Heightened Def Con from 0.0103764 to 0.0103764
Heightened Def Con from 0.0103764 to 0.0103764
Heightened Def Con from 0.0103788 to 0.0103788
Heightened Def Con from 0.0103814 to 0.0103814
Heightened Def Con from 0.0103814 to 0.0103814
Heightened Def Con from 0.0103838 to 0.0103838
Heightened Def Con from 0.0103838 to 0.0103839
Heightened Def Con from 0.0103864 to 0.0103864
Heightened Def Con from 0.0103888 to 0.0103888
Heightened Def Con from 0.0103914 to 0.0103914
Heightened Def Con from 0.0103938 to 0.0103938
Heightened Def Con from 0.0103938 to 0.0103939
Heightened Def Con from 0.0103964 to 0.0103964
Heightened Def Con from 0.0103964 to 0.0103964
Heightened Def Con from 0.0103988 to 0.0103988
Heightened Def Con from 0.0103988 to 0.0103989
Heightened Def Con from 0.0104014 to 0.0104014
Heightened Def Con from 0.0104038 to 0.0104038
Heightened Def Con from 0.0104038 to 0.0104039
Heightened Def Con from 0.0104064 to 0.0104064
Heightened Def Con from 0.0104064 to 0.0104064
Heightened Def Con from 0.0104064 to 0.0104064
Heightened Def Con from 0.0104088 to 0.0104088
Heightened Def Con from 0.0104114 to 0.0104114
Heightened Def Con from 0.0104138 to 0.0104138
Heightened Def Con from 0.0104164 to 0.0104164
Heightened Def Con from 0.0104164 to 0.0104164
Heightened Def Con from 0.0104188 to 0.0104188
Heightened Def Con from 0.0104214 to 0.0104214
Heightened Def Con from 0.0104214 to 0.0104214
Heightened Def Con from 0.0104238 to 0.0104238
Heightened Def Con from 0.0104264 to 0.0104264
Heightened Def Con from 0.0104288 to 0.0104288
Heightened Def Con from 0.0104314 to 0.0104314
Heightened Def Con from 0.0104314 to 0.0104314
Heightened Def Con from 0.0104338 to 0.0104338
Heightened Def Con from 0.0104338 to 0.0104338
Heightened Def Con from 0.0104364 to 0.0104364
Heightened Def Con from 0.0104364 to 0.0104364
Heightened Def Con from 0.0104388 to 0.0104388
Heightened Def Con from 0.0104414 to 0.0104414
Heightened Def Con from 0.0104438 to 0.0104438
Heightened Def Con from 0.0104464 to 0.0104464
Heightened Def Con from 0.0104464 to 0.0104464
Heightened Def Con from 0.0104488 to 0.0104488
Heightened Def Con from 0.0104488 to 0.0104488
Heightened Def Con from 0.0104514 to 0.0104514
Heightened Def Con from 0.0104538 to 0.0104538
Heightened Def Con from 0.0104564 to 0.0104564
Heightened Def Con from 0.0104588 to 0.0104588
Heightened Def Con from 0.0104588 to 0.0104588
Heightened Def Con from 0.0104614 to 0.0104614
Heightened Def Con from 0.0104614 to 0.0104614
Heightened Def Con from 0.0104614 to 0.0104614
Heightened Def Con from 0.0104638 to 0.0104638
Heightened Def Con from 0.0104664 to 0.0104664
Heightened Def Con from 0.0104688 to 0.0104688
Heightened Def Con from 0.0104688 to 0.0104688
Heightened Def Con from 0.0104714 to 0.0104714
Heightened Def Con from 0.0104714 to 0.0104714
Heightened Def Con from 0.0104714 to 0.0104714
Heightened Def Con from 0.0104738 to 0.0104738
Heightened Def Con from 0.0104764 to 0.0104764
Heightened Def Con from 0.0104764 to 0.0104764
Heightened Def Con from 0.0104788 to 0.0104788
Heightened Def Con from 0.0104788 to 0.0104788
Heightened Def Con from 0.0104814 to 0.0104814
Heightened Def Con from 0.0104838 to 0.0104838
Heightened Def Con from 0.0104864 to 0.0104864
Heightened Def Con from 0.0104864 to 0.0104864
Heightened Def Con from 0.0104888 to 0.0104888
Heightened Def Con from 0.0104914 to 0.0104914
Heightened Def Con from 0.0104938 to 0.0104938
Heightened Def Con from 0.0104938 to 0.0104938
Heightened Def Con from 0.0104964 to 0.0104964
Heightened Def Con from 0.0104964 to 0.0104964
Heightened Def Con from 0.0104988 to 0.0104988
Heightened Def Con from 0.0104988 to 0.0104988
Heightened Def Con from 0.0105014 to 0.0105014
Heightened Def Con from 0.0105014 to 0.0105014
Heightened Def Con from 0.0105038 to 0.0105038
Heightened Def Con from 0.0105064 to 0.0105064
Heightened Def Con from 0.0105064 to 0.0105064
Heightened Def Con from 0.0105088 to 0.0105088
Heightened Def Con from 0.0105088 to 0.0105088
Heightened Def Con from 0.0105114 to 0.0105114
Heightened Def Con from 0.0105114 to 0.0105114
Heightened Def Con from 0.0105138 to 0.0105138
Heightened Def Con from 0.0105164 to 0.0105164
Heightened Def Con from 0.0105188 to 0.0105188
Heightened Def Con from 0.0105188 to 0.0105188
Heightened Def Con from 0.0105214 to 0.0105214
Heightened Def Con from 0.0105214 to 0.0105214
Heightened Def Con from 0.0105238 to 0.0105238
Heightened Def Con from 0.0105264 to 0.0105264
Heightened Def Con from 0.0105264 to 0.0105264
Heightened Def Con from 0.0105288 to 0.0105288
Heightened Def Con from 0.0105288 to 0.0105288
Heightened Def Con from 0.0105314 to 0.0105314
Heightened Def Con from 0.0105314 to 0.0105314
Heightened Def Con from 0.0105338 to 0.0105338
Heightened Def Con from 0.0105364 to 0.0105364
Heightened Def Con from 0.0105364 to 0.0105364
Heightened Def Con from 0.0105388 to 0.0105388
Heightened Def Con from 0.0105388 to 0.0105388
Heightened Def Con from 0.0105414 to 0.0105414
Heightened Def Con from 0.0105414 to 0.0105414
Heightened Def Con from 0.0105438 to 0.0105438
Heightened Def Con from 0.0105438 to 0.0105438
Heightened Def Con from 0.0105464 to 0.0105464
Heightened Def Con from 0.0105488 to 0.0105488
Heightened Def Con from 0.0105488 to 0.0105488
Heightened Def Con from 0.0105514 to 0.0105514
Heightened Def Con from 0.0105514 to 0.0105514
Heightened Def Con from 0.0105538 to 0.0105538
Heightened Def Con from 0.0105564 to 0.0105564
Heightened Def Con from 0.0105564 to 0.0105564
Heightened Def Con from 0.0105588 to 0.0105588
Heightened Def Con from 0.0105588 to 0.0105588
Heightened Def Con from 0.0105614 to 0.0105614
Heightened Def Con from 0.0105614 to 0.0105614
Heightened Def Con from 0.0105638 to 0.0105638
Heightened Def Con from 0.0105638 to 0.0105638
Heightened Def Con from 0.0105664 to 0.0105664
Heightened Def Con from 0.0105688 to 0.0105688
Heightened Def Con from 0.0105688 to 0.0105688
Heightened Def Con from 0.0105714 to 0.0105714
Heightened Def Con from 0.0105714 to 0.0105714
Heightened Def Con from 0.0105738 to 0.0105738
Heightened Def Con from 0.0105738 to 0.0105738
Heightened Def Con from 0.0105764 to 0.0105764
Heightened Def Con from 0.0105764 to 0.0105764
Heightened Def Con from 0.0105788 to 0.0105788
Heightened Def Con from 0.0105788 to 0.0105788
Heightened Def Con from 0.0105814 to 0.0105814
Heightened Def Con from 0.0105814 to 0.0105814
Heightened Def Con from 0.0105838 to 0.0105838
Heightened Def Con from 0.0105838 to 0.0105838
Heightened Def Con from 0.0105864 to 0.0105864
Heightened Def Con from 0.0105888 to 0.0105888
Heightened Def Con from 0.0105888 to 0.0105888
Heightened Def Con from 0.0105914 to 0.0105914
Heightened Def Con from 0.0105938 to 0.0105938
Heightened Def Con from 0.0105938 to 0.0105938
Heightened Def Con from 0.0105964 to 0.0105964
Heightened Def Con from 0.0105964 to 0.0105964
Heightened Def Con from 0.0105988 to 0.0105988
Heightened Def Con from 0.0105988 to 0.0105988
Heightened Def Con from 0.0106014 to 0.0106014
Heightened Def Con from 0.0106014 to 0.0106014
Heightened Def Con from 0.0106038 to 0.0106038
Heightened Def Con from 0.0106064 to 0.0106064
Heightened Def Con from 0.0106064 to 0.0106064
Heightened Def Con from 0.0106088 to 0.0106088
Heightened Def Con from 0.0106088 to 0.0106088
Heightened Def Con from 0.0106114 to 0.0106114
Heightened Def Con from 0.0106138 to 0.0106138
Heightened Def Con from 0.0106138 to 0.0106138
Heightened Def Con from 0.0106164 to 0.0106164
Heightened Def Con from 0.0106164 to 0.0106164
Heightened Def Con from 0.0106188 to 0.0106188
Heightened Def Con from 0.0106214 to 0.0106214
Heightened Def Con from 0.0106238 to 0.0106238
Heightened Def Con from 0.0106264 to 0.0106264
Heightened Def Con from 0.0106288 to 0.0106288
Heightened Def Con from 0.0106288 to 0.0106288
Heightened Def Con from 0.0106314 to 0.0106314
Heightened Def Con from 0.0106338 to 0.0106338
Heightened Def Con from 0.0106338 to 0.0106338
Heightened Def Con from 0.0106364 to 0.0106364
Heightened Def Con from 0.0106364 to 0.0106364
Heightened Def Con from 0.0106388 to 0.0106388
Heightened Def Con from 0.0106388 to 0.0106388
Heightened Def Con from 0.0106414 to 0.0106414
Heightened Def Con from 0.0106438 to 0.0106438
Heightened Def Con from 0.0106488 to 0.0106488
Heightened Def Con from 0.0106488 to 0.0106488
Heightened Def Con from 0.0106514 to 0.0106514
Heightened Def Con from 0.0106514 to 0.0106514
Heightened Def Con from 0.0106538 to 0.0106538
Heightened Def Con from 0.0106538 to 0.0106538
Heightened Def Con from 0.0106564 to 0.0106564
Heightened Def Con from 0.0106588 to 0.0106588
Heightened Def Con from 0.0106614 to 0.0106614
Heightened Def Con from 0.0106614 to 0.0106614
Heightened Def Con from 0.0106638 to 0.0106638
Heightened Def Con from 0.0106638 to 0.0106638
Heightened Def Con from 0.0106664 to 0.0106664
Heightened Def Con from 0.0106688 to 0.0106688
Heightened Def Con from 0.0106714 to 0.0106714
Heightened Def Con from 0.0106714 to 0.0106714
Heightened Def Con from 0.0106738 to 0.0106738
Heightened Def Con from 0.0106764 to 0.0106764
Heightened Def Con from 0.0106764 to 0.0106764
Heightened Def Con from 0.0106788 to 0.0106788
Heightened Def Con from 0.0106788 to 0.0106788
Heightened Def Con from 0.0106814 to 0.0106814
Heightened Def Con from 0.0106814 to 0.0106814
Heightened Def Con from 0.0106838 to 0.0106838
Heightened Def Con from 0.0106838 to 0.0106838
Heightened Def Con from 0.0106864 to 0.0106864
Heightened Def Con from 0.0106888 to 0.0106888
Heightened Def Con from 0.0106914 to 0.0106914
Heightened Def Con from 0.0106914 to 0.0106914
Heightened Def Con from 0.0106938 to 0.0106938
Heightened Def Con from 0.0106938 to 0.0106938
Heightened Def Con from 0.0106964 to 0.0106964
Heightened Def Con from 0.0106988 to 0.0106988
Heightened Def Con from 0.0106988 to 0.0106988
Heightened Def Con from 0.0107014 to 0.0107014
Heightened Def Con from 0.0107014 to 0.0107014
Heightened Def Con from 0.0107038 to 0.0107038
Heightened Def Con from 0.0107038 to 0.0107038
Heightened Def Con from 0.0107064 to 0.0107064
Heightened Def Con from 0.0107064 to 0.0107064
Heightened Def Con from 0.0107064 to 0.0107064
Heightened Def Con from 0.0107088 to 0.0107088
Heightened Def Con from 0.0107114 to 0.0107114
Heightened Def Con from 0.0107138 to 0.0107138
Heightened Def Con from 0.0107164 to 0.0107164
Heightened Def Con from 0.0107164 to 0.0107164
Heightened Def Con from 0.0107188 to 0.0107188
Heightened Def Con from 0.0107214 to 0.0107214
Heightened Def Con from 0.0107214 to 0.0107214
Heightened Def Con from 0.0107238 to 0.0107238
Heightened Def Con from 0.0107264 to 0.0107264
Heightened Def Con from 0.0107288 to 0.0107288
Heightened Def Con from 0.0107314 to 0.0107314
Heightened Def Con from 0.0107338 to 0.0107338
Heightened Def Con from 0.0107338 to 0.0107338
Heightened Def Con from 0.0107364 to 0.0107364
Heightened Def Con from 0.0107388 to 0.0107388
Heightened Def Con from 0.0107388 to 0.0107388
Heightened Def Con from 0.0107414 to 0.0107414
Heightened Def Con from 0.0107438 to 0.0107438
Heightened Def Con from 0.0107464 to 0.0107464
Heightened Def Con from 0.0107488 to 0.0107488
Heightened Def Con from 0.0107514 to 0.0107514
Heightened Def Con from 0.0107538 to 0.0107538
Heightened Def Con from 0.0107564 to 0.0107564
Heightened Def Con from 0.0107588 to 0.0107588
Heightened Def Con from 0.0107614 to 0.0107614
Heightened Def Con from 0.0107614 to 0.0107614
Heightened Def Con from 0.0107638 to 0.0107638
Heightened Def Con from 0.0107664 to 0.0107664
Heightened Def Con from 0.0107664 to 0.0107664
Heightened Def Con from 0.0107688 to 0.0107688
Heightened Def Con from 0.0107688 to 0.0107688
Heightened Def Con from 0.0107714 to 0.0107714
Heightened Def Con from 0.0107714 to 0.0107714
Heightened Def Con from 0.0107738 to 0.0107738
Heightened Def Con from 0.0107738 to 0.0107738
Heightened Def Con from 0.0107764 to 0.0107764
Heightened Def Con from 0.0107764 to 0.0107764
Heightened Def Con from 0.0107788 to 0.0107788
Heightened Def Con from 0.0107814 to 0.0107814
Heightened Def Con from 0.0107814 to 0.0107814
Heightened Def Con from 0.0107838 to 0.0107838
Heightened Def Con from 0.0107838 to 0.0107838
Heightened Def Con from 0.0107864 to 0.0107864
Heightened Def Con from 0.0107888 to 0.0107888
Heightened Def Con from 0.0107888 to 0.0107888
Heightened Def Con from 0.0107914 to 0.0107914
Heightened Def Con from 0.0107938 to 0.0107938
Heightened Def Con from 0.0107964 to 0.0107964
Heightened Def Con from 0.0107964 to 0.0107964
Heightened Def Con from 0.0107988 to 0.0107988
Heightened Def Con from 0.0108014 to 0.0108014
Heightened Def Con from 0.0108014 to 0.0108014
Heightened Def Con from 0.0108038 to 0.0108038
Heightened Def Con from 0.0108064 to 0.0108064
Heightened Def Con from 0.0108064 to 0.0108064
Heightened Def Con from 0.0108088 to 0.0108088
Heightened Def Con from 0.0108088 to 0.0108088
Heightened Def Con from 0.0108114 to 0.0108114
Heightened Def Con from 0.0108114 to 0.0108114
Heightened Def Con from 0.0108138 to 0.0108138
Heightened Def Con from 0.0108138 to 0.0108138
Heightened Def Con from 0.0108164 to 0.0108164
Heightened Def Con from 0.0108164 to 0.0108164
Heightened Def Con from 0.0108188 to 0.0108188
Heightened Def Con from 0.0108214 to 0.0108214
Heightened Def Con from 0.0108214 to 0.0108214
Heightened Def Con from 0.0108238 to 0.0108238
Heightened Def Con from 0.0108264 to 0.0108264
Heightened Def Con from 0.0108288 to 0.0108288
Heightened Def Con from 0.0108288 to 0.0108288
Heightened Def Con from 0.0108314 to 0.0108314
Heightened Def Con from 0.0108338 to 0.0108338
Heightened Def Con from 0.0108364 to 0.0108364
Heightened Def Con from 0.0108364 to 0.0108364
Heightened Def Con from 0.0108388 to 0.0108388
Heightened Def Con from 0.0108388 to 0.0108388
Heightened Def Con from 0.0108414 to 0.0108414
Heightened Def Con from 0.0108438 to 0.0108438
Heightened Def Con from 0.0108438 to 0.0108438
Heightened Def Con from 0.0108464 to 0.0108464
Heightened Def Con from 0.0108488 to 0.0108488
Heightened Def Con from 0.0108488 to 0.0108488
Heightened Def Con from 0.0108514 to 0.0108514
Heightened Def Con from 0.0108514 to 0.0108514
Heightened Def Con from 0.0108538 to 0.0108538
Heightened Def Con from 0.0108564 to 0.0108564
Heightened Def Con from 0.0108564 to 0.0108564
Heightened Def Con from 0.0108588 to 0.0108588
Heightened Def Con from 0.0108615 to 0.0108615
Heightened Def Con from 0.0108638 to 0.0108638
Heightened Def Con from 0.0108638 to 0.0108638
Heightened Def Con from 0.0108665 to 0.0108665
Heightened Def Con from 0.0108688 to 0.0108688
Heightened Def Con from 0.0108688 to 0.0108688
Heightened Def Con from 0.0108715 to 0.0108715
Heightened Def Con from 0.0108738 to 0.0108738
Heightened Def Con from 0.0108738 to 0.0108738
Heightened Def Con from 0.0108765 to 0.0108765
Heightened Def Con from 0.0108765 to 0.0108765
Heightened Def Con from 0.0108788 to 0.0108788
Heightened Def Con from 0.0108788 to 0.0108788
Heightened Def Con from 0.0108815 to 0.0108815
Heightened Def Con from 0.0108815 to 0.0108815
Heightened Def Con from 0.0108838 to 0.0108838
Heightened Def Con from 0.0108838 to 0.0108838
Heightened Def Con from 0.0108865 to 0.0108865
Heightened Def Con from 0.0108888 to 0.0108888
Heightened Def Con from 0.0108915 to 0.0108915
Heightened Def Con from 0.0108938 to 0.0108938
Heightened Def Con from 0.0108938 to 0.0108938
Heightened Def Con from 0.0108965 to 0.0108965
Heightened Def Con from 0.0108988 to 0.0108988
Heightened Def Con from 0.0108988 to 0.0108988
Heightened Def Con from 0.0109015 to 0.0109015
Heightened Def Con from 0.0109015 to 0.0109015
Heightened Def Con from 0.0109038 to 0.0109038
Heightened Def Con from 0.0109038 to 0.0109038
Heightened Def Con from 0.0109065 to 0.0109065
Heightened Def Con from 0.0109088 to 0.0109088
Heightened Def Con from 0.0109088 to 0.0109088
Heightened Def Con from 0.0109115 to 0.0109115
Heightened Def Con from 0.0109138 to 0.0109138
Heightened Def Con from 0.0109138 to 0.0109138
Heightened Def Con from 0.0109165 to 0.0109165
Heightened Def Con from 0.0109165 to 0.0109165
Heightened Def Con from 0.0109188 to 0.0109188
Heightened Def Con from 0.0109188 to 0.0109188
Heightened Def Con from 0.0109215 to 0.0109215
Heightened Def Con from 0.0109215 to 0.0109215
Heightened Def Con from 0.0109238 to 0.0109238
Heightened Def Con from 0.0109265 to 0.0109265
Heightened Def Con from 0.0109265 to 0.0109265
Heightened Def Con from 0.0109288 to 0.0109288
Heightened Def Con from 0.0109288 to 0.0109288
Heightened Def Con from 0.0109315 to 0.0109315
Heightened Def Con from 0.0109315 to 0.0109315
Heightened Def Con from 0.0109365 to 0.0109365
Heightened Def Con from 0.0109388 to 0.0109388
Heightened Def Con from 0.0109388 to 0.0109388
Heightened Def Con from 0.0109415 to 0.0109415
Heightened Def Con from 0.0109415 to 0.0109415
Heightened Def Con from 0.0109438 to 0.0109438
Heightened Def Con from 0.0109438 to 0.0109438
Heightened Def Con from 0.0109465 to 0.0109465
Heightened Def Con from 0.0109465 to 0.0109465
Heightened Def Con from 0.0109488 to 0.0109488
Heightened Def Con from 0.0109515 to 0.0109515
Heightened Def Con from 0.0109538 to 0.0109538
Heightened Def Con from 0.0109565 to 0.0109565
Heightened Def Con from 0.0109565 to 0.0109565
Heightened Def Con from 0.0109588 to 0.0109588
Heightened Def Con from 0.0109615 to 0.0109615
Heightened Def Con from 0.0109615 to 0.0109615
Heightened Def Con from 0.0109638 to 0.0109638
Heightened Def Con from 0.0109665 to 0.0109665
Heightened Def Con from 0.0109688 to 0.0109688
Heightened Def Con from 0.0109715 to 0.0109715
Heightened Def Con from 0.0109715 to 0.0109715
Heightened Def Con from 0.0109738 to 0.0109738
Heightened Def Con from 0.0109765 to 0.0109765
Heightened Def Con from 0.0109765 to 0.0109765
Heightened Def Con from 0.0109788 to 0.0109788
Heightened Def Con from 0.0109815 to 0.0109815
Heightened Def Con from 0.0109838 to 0.0109838
Heightened Def Con from 0.0109838 to 0.0109838
Heightened Def Con from 0.0109865 to 0.0109865
Heightened Def Con from 0.0109865 to 0.0109865
Heightened Def Con from 0.0109888 to 0.0109888
Heightened Def Con from 0.0109888 to 0.0109888
Heightened Def Con from 0.0109915 to 0.0109915
Heightened Def Con from 0.0109915 to 0.0109915
Heightened Def Con from 0.0109938 to 0.0109938
Heightened Def Con from 0.0109938 to 0.0109938
Heightened Def Con from 0.0109965 to 0.0109965
Heightened Def Con from 0.0109988 to 0.0109988
Heightened Def Con from 0.0109988 to 0.0109988
.step vin=1.1

Date: Fri Mar 06 20:22:32 2020
Total elapsed time: 2361.809 seconds.

tnom = 27
temp = 27
method = modified trap
totiter = 21765015
traniter = 21765015
tranpoints = 7721404
accept = 5788404
rejected = 1940264
matrix size = 238
fillins = 155
Thread vector: 35.9/24.9[4] 11.3/7.4[4] 8.2/4.8[4] 2.3/2.0[2]  2592/500
Matrix Compiler1: 21.27 KB object code size  8.7/6.4/[2.7]
Matrix Compiler2: 21.26 KB object code size  4.9/6.7/[1.8]

