
**** 04/04/20 14:43:52 ****** PSpice 17.2.0 (March 2016) ****** ID# 0 ********

 ** Profile: "SCHEMATIC1-bias"  [ C:\Users\emanu\Desktop\DCE-GRUPO10\REALIMENTADOR\PSpice\Calculo-PSpiceFiles\SCHEMATIC1\bias.sim ] 


 ****     CIRCUIT DESCRIPTION


******************************************************************************




** Creating circuit file "bias.cir" 
** WARNING: THIS AUTOMATICALLY GENERATED FILE MAY BE OVERWRITTEN BY SUBSEQUENT SIMULATIONS

*Libraries: 
* Profile Libraries :
* Local Libraries :
* From [PSPICE NETLIST] section of D:\Cadence\SPB_Data\cdssetup\OrCAD_PSpice\17.2.0\PSpice.ini file:
.lib "nom.lib" 

*Analysis directives: 
.AC DEC 10000 1 10Meg
.OPTIONS ADVCONV
.PROBE64 V(alias(*)) I(alias(*)) W(alias(*)) D(alias(*)) NOISE(alias(*)) 
.INC "..\SCHEMATIC1.net" 



**** INCLUDING SCHEMATIC1.net ****
* source CALCULO
X_U1         N15125 N14512 VCC VEE N14512 AD817/AD
X_U2         N14574 N14519 VEE VCC ERROR AD817/AD
V_V1         VCC 0 15
V_V2         0 VEE 15
C_C1         N14519 ERROR  220p  TC=0,0 
C_C2         0 N14574  220p  TC=0,0 
R_R1         0 N14574  8.2k TC=0,0 
R_R2         ERROR N14519  8.2k TC=0,0 
R_R3         N14512 N14519  1k TC=0,0 
R_R4         0 N14574  1k TC=0,0 
V_V3         VF 0  AC 1
+SIN 0 0 0 0 0 0
R_R5         N15125 VF  19k TC=0,0 
R_R6         0 N15125  1k TC=0,0 
L_L1         VS VO  33u  
C_C3         0 VO  330n  TC=0,0 
R_R7         0 VO  8 TC=0,0 
X_U3         N15681 VS awbdelay PARAMS: DELAY=150n
E_E1         N15681 0 ERROR 0 20

**** RESUMING bias.cir ****
.END

**** 04/04/20 14:43:52 ****** PSpice 17.2.0 (March 2016) ****** ID# 0 ********

 ** Profile: "SCHEMATIC1-bias"  [ C:\Users\emanu\Desktop\DCE-GRUPO10\REALIMENTADOR\PSpice\Calculo-PSpiceFiles\SCHEMATIC1\bias.sim ] 


 ****     Diode MODEL PARAMETERS


******************************************************************************




               X_U1.DX         X_U2.DX         
          IS   10.000000E-15   10.000000E-15 


**** 04/04/20 14:43:52 ****** PSpice 17.2.0 (March 2016) ****** ID# 0 ********

 ** Profile: "SCHEMATIC1-bias"  [ C:\Users\emanu\Desktop\DCE-GRUPO10\REALIMENTADOR\PSpice\Calculo-PSpiceFiles\SCHEMATIC1\bias.sim ] 


 ****     BJT MODEL PARAMETERS


******************************************************************************




               X_U1.QN         X_U2.QN         
               NPN             NPN             
       LEVEL    1               1            
          IS  100.000000E-18  100.000000E-18 
          BF  151.52          151.52         
          NF    1               1            
          BR    1               1            
          NR    1               1            
         ISS    0               0            
          RE    0               0            
          RC    0               0            
         CJE    0               0            
         VJE     .75             .75         
         CJC    0               0            
         VJC     .75             .75         
         MJC     .33             .33         
        XCJC    1               1            
         CJS    0               0            
         VJS     .75             .75         
          KF    0               0            
          AF    1               1            
          CN    2.42            2.42         
           D     .87             .87         


Starting pseudo-transient algorithm.

ERROR -- Convergence problem in bias point calculation


  Last node voltages tried were:

 NODE   VOLTAGE     NODE   VOLTAGE     NODE   VOLTAGE     NODE   VOLTAGE


(   VF)    0.0000  (   VO)    0.0000  (   VS)    0.0000  (  VCC)    1.2739      

(  VEE)   -1.2739  (ERROR)-244.6E-06  (N14512)    -.0020 (N14519)    -.2509     

(N14574)    -.2502 (N15125)-266.6E-06 (N15681)-1.956E-06 (X_U1.3)-224.2E-06     

(X_U1.4)    1.2244 (X_U1.5)    1.2232 (X_U1.6)    -.6940 (X_U1.7)    -.6929     

(X_U1.8)    -.7417 (X_U1.9) 62.71E-06 (X_U2.3)    -.2501 (X_U2.4)    -.9920     

(X_U2.5)    -.9913 (X_U2.6)    -.9954 (X_U2.7)    -.9948 (X_U2.8)   -1.0434     

(X_U2.9)-303.4E-24 (X_U3.3)-782.6E-12 (X_U1.10)    1.1185                       

(X_U1.11)   -1.1185                   (X_U1.14)-95.97E-06                       

(X_U1.15)-90.65E-12                   (X_U1.31) 3.460E-09                       

(X_U1.32) 1.384E-06                   (X_U1.33) 1.384E-12                       

(X_U1.34) 553.6E-12                   (X_U1.35) 554.3E-18                       

(X_U1.36) 30.54E-21                   (X_U1.40)-736.5E-12                       

(X_U1.41)    -.0034                   (X_U1.42)     .0034                       

(X_U1.45)    -.0020                   (X_U1.60)    -.0080                       

(X_U1.61)    0.0000                   (X_U1.62)    0.0000                       

(X_U1.98)    0.0000                   (X_U2.10)   -1.4293                       

(X_U2.11)    1.4293                   (X_U2.14)    -.0213                       

(X_U2.15)-21.36E-09                   (X_U2.31)-4.262E-21                       

(X_U2.32)-1.705E-18                   (X_U2.33) 13.15E-24                       

(X_U2.34) 5.259E-21                   (X_U2.35) 2.201E-21                       

(X_U2.36) 1.851E-30                   (X_U2.40)-90.34E-12                       

(X_U2.41)    -.0034                   (X_U2.42)     .0034                       

(X_U2.45)-244.6E-06                   (X_U2.60)-978.2E-06                       

(X_U2.61)    0.0000                   (X_U2.62)    0.0000                       

(X_U2.98)    0.0000                   (X_U3.AWBDELAY_DUMMY)     .0849       


  These voltages failed to converge:

    V(X_U1.8)                 =  -746.68mV  \  -741.72mV
    V(X_U1.6)                 =  -695.76mV  \  -694.01mV
    V(X_U1.3)                 =   -10.11mV  \  -224.17uV
    V(X_U1.7)                 =  -701.04mV  \  -692.86mV
    V(X_U1.15)                =   -1.034mV  \   -90.65pV
    V(X_U1.14)                =   -1.130mV  \   -95.97uV
    V(X_U2.8)                 =    -2.120V  \    -1.043V
    V(X_U2.4)                 =    -2.058V  \  -991.96mV
    V(X_U2.6)                 =    -1.931V  \    -0.995V
    V(X_U2.5)                 =    -2.057V  \  -991.26mV
    V(X_U2.3)                 =    -2.542V  \  -250.11mV
    V(X_U2.7)                 =    -2.214V  \  -994.78mV
    V(X_U2.15)                =  -229.26mV  \   -21.36nV
    V(X_U2.14)                =  -250.53mV  \   -21.28mV
    V(X_U3.AWBDELAY_DUMMY)    =     1.000V  \    84.93mV

  These supply currents failed to converge:

    I(X_U1.EOS)               =  -263.18nA  \  -281.73nA
    I(X_U1.EREF)              =    7.657pA  \   291.98fA
    I(X_U1.ECM)               =    1.034mA  \    90.95pA
    I(X_U2.EOS)               =    13.02mA  \  -280.66uA
    I(X_U2.EREF)              =    2.174nA  \   239.86pA
    I(X_U2.ECM)               =   229.26mA  \    21.36nA
    I(X_U3.e.TT1.eA1)         =   -1.565nA  \  -782.57pA
    I(X_U3.e.TT1.eB1)         =    1.565nA  \         0A
    I(L_L1)                   =   -1.565nA  \         0A
    IA(X_U3.TT1)              =   -1.565nA  \  -782.57pA
    IB(X_U3.TT1)              =    1.565nA  \         0A
    I(V_V1)                   =  -159.36mA  \   -10.00GA
    I(V_V2)                   =  -157.85mA  \   -10.00GA
    I(X_U2.V1)                =   -30.29pA  \   -10.00GA
    I(X_U2.V2)                =   -30.29pA  \   -10.00GA

  These devices failed to converge:
    X_U2.D1   X_U2.D2   X_U1.Q1   X_U1.Q2   X_U2.Q1   X_U2.Q2   

**** Interrupt ****
**** Param: RELTOL = 0.001
**** Param: ABSTOL = 1e-012
**** Param: VNTOL = 1e-006
**** Param: GMIN = 1e-012
**** Param: TSTOP = 1
**** Param: TMAX = 0
**** Param: ITL1 = 150
**** Param: ITL2 = 20
**** Param: ITL4 = 100
**** Param: AutoConverge = 0
**** Param: AutoConverge.ITL1 = 1000
**** Param: AutoConverge.ITL2 = 1000
**** Param: AutoConverge.ITL4 = 1000
**** Param: AutoConverge.RELTOL = 0.05
**** Param: AutoConverge.ABSTOL = 0.001
**** Param: AutoConverge.VNTOL = 0.001
**** Param: AutoConverge.PIVTOL = 1e-010
**** Param: ADVCONV = 1
**** Param: Current_Simulation = 0
**** Param: METHOD = 0
**** Param: TRTOL = 7
**** Param: STEPGMIN = 0
**** Param: GMINSTEPS = 0
**** Param: ITL6 = 0
**** Param: NOSTEPDEP = 0
**** Param: PTRANSTEP = 0
**** Param: GMINSRC = 0
**** Param: PSEUDOTRAN = 0
**** Param: NOSTEPSRC = 0

Starting pseudo-transient algorithm (from auto-convergence).

WARNING(ORPSIM-16534): Using high values of ITL4 for Speed Level > 0 may increase total simulation job time.

ERROR -- Convergence problem in bias point calculation


  Last node voltages tried were:

 NODE   VOLTAGE     NODE   VOLTAGE     NODE   VOLTAGE     NODE   VOLTAGE


(   VF)    0.0000  (   VO)    0.0000  (   VS)    0.0000  (  VCC)     .1690      

(  VEE)    -.1690  (ERROR)-32.69E-09  (N14512)-560.4E-09 (N14519)-33.53E-06     

(N14574)-32.79E-06 (N15125)-34.93E-06 (N15681)-261.5E-12 (X_U1.3)-29.30E-06     

(X_U1.4)     .1624 (X_U1.5)     .1624 (X_U1.6)    -.6401 (X_U1.7)    -.6401     

(X_U1.8)    -.6465 (X_U1.9)-310.4E-09 (X_U2.3)-27.15E-06 (X_U2.4)    -.1757     

(X_U2.5)    -.1757 (X_U2.6)    -.6401 (X_U2.7)    -.6401 (X_U2.8)    -.6465     

(X_U2.9) 68.92E-09 (X_U3.3)-104.6E-15 (X_U1.10)     .1484                       

(X_U1.11)    -.1484                   (X_U1.14)-200.0E-09                       

(X_U1.15)-203.6E-15                   (X_U1.31)-17.12E-12                       

(X_U1.32)-6.850E-09                   (X_U1.33)-6.850E-15                       

(X_U1.34)-2.740E-12                   (X_U1.35)-2.740E-18                       

(X_U1.36)-151.2E-24                   (X_U1.40)-213.3E-15                       

(X_U1.41)-450.8E-06                   (X_U1.42) 450.8E-06                       

(X_U1.45)-560.4E-09                   (X_U1.60)-2.242E-06                       

(X_U1.61)    0.0000                   (X_U1.62)    0.0000                       

(X_U1.98)    0.0000                   (X_U2.10)    -.1897                       

(X_U2.11)     .1897                   (X_U2.14)-373.7E-09                       

(X_U2.15)-380.4E-15                   (X_U2.31) 3.802E-12                       

(X_U2.32) 1.521E-09                   (X_U2.33) 1.521E-15                       

(X_U2.34) 608.4E-15                   (X_U2.35) 608.4E-21                       

(X_U2.36) 33.57E-24                   (X_U2.40)-12.44E-15                       

(X_U2.41)-450.8E-06                   (X_U2.42) 450.8E-06                       

(X_U2.45)-32.69E-09                   (X_U2.60)-130.8E-09                       

(X_U2.61)    0.0000                   (X_U2.62)    0.0000                       

(X_U2.98)    0.0000                   (X_U3.AWBDELAY_DUMMY)     .0113       


  These voltages failed to converge:

    V(X_U1.3)                 =   464.68uV  \   -29.30uV
    V(X_U1.14)                =   -17.88uV  \  -199.99nV
    V(X_U2.3)                 =   466.93uV  \   -27.15uV
    V(X_U2.14)                =   -33.16uV  \  -373.67nV
    V(X_U3.AWBDELAY_DUMMY)    =     1.000V  \    11.27mV

  These supply currents failed to converge:

    I(X_U1.EOS)               =   -37.20nA  \   -36.91nA
    I(X_U1.ECM)               =    11.88nA  \   203.57fA
    I(X_U2.EOS)               =   -37.21nA  \   -36.93nA
    I(X_U2.ECM)               =    22.03nA  \   380.35fA
    I(X_U1.LO)                =    69.72nA  \    70.06nA
    I(X_U2.LO)                =    3.875nA  \    4.087nA
    I(V_V3)                   =   -1.853nA  \   -1.839nA

**** Interrupt ****
**** Param: RELTOL = 0.001
**** Param: ABSTOL = 1e-012
**** Param: VNTOL = 1e-006
**** Param: GMIN = 1e-012
**** Param: TSTOP = 1
**** Param: TMAX = 0
**** Param: ITL1 = 150
**** Param: ITL2 = 20
**** Param: ITL4 = 100
**** Param: AutoConverge = 0
**** Param: AutoConverge.ITL1 = 1000
**** Param: AutoConverge.ITL2 = 1000
**** Param: AutoConverge.ITL4 = 1000
**** Param: AutoConverge.RELTOL = 0.05
**** Param: AutoConverge.ABSTOL = 0.001
**** Param: AutoConverge.VNTOL = 0.001
**** Param: AutoConverge.PIVTOL = 1e-010
**** Param: ADVCONV = 1
**** Param: Current_Simulation = 0
**** Param: METHOD = 0
**** Param: TRTOL = 7
**** Param: STEPGMIN = 0
**** Param: GMINSTEPS = 0
**** Param: ITL6 = 0
**** Param: NOSTEPDEP = 0
**** Param: PTRANSTEP = 0
**** Param: GMINSRC = 0
**** Param: PSEUDOTRAN = 0
**** Param: NOSTEPSRC = 0

          JOB ABORTED

**** 04/04/20 14:43:52 ****** PSpice 17.2.0 (March 2016) ****** ID# 0 ********

 ** Profile: "SCHEMATIC1-bias"  [ C:\Users\emanu\Desktop\DCE-GRUPO10\REALIMENTADOR\PSpice\Calculo-PSpiceFiles\SCHEMATIC1\bias.sim ] 


 ****     JOB STATISTICS SUMMARY


******************************************************************************



  Total job time (using Solver 1)   =      126.06
