Circuit: * C:\Users\emanu\Desktop\DCE-GRUPO10\REALIMENTADOR\LTSpice\Calculo.asc

Number of points per decade reduced from 10000 to 7726.
WARNING: Less than two connections to node 5V.  This node is used by V1.
WARNING: Less than two connections to node -5V.  This node is used by V2.
WARNING: Less than two connections to node VCC.  This node is used by V10.
WARNING: Less than two connections to node VEE.  This node is used by V11.
Direct Newton iteration for .op point succeeded.

Date: Wed Apr  1 00:20:33 2020
Total elapsed time: 1.116 seconds.

tnom = 27
temp = 27
method = trap
totiter = 26
traniter = 0
tranpoints = 0
accept = 0
rejected = 0
matrix size = 105
fillins = 67
solver = Alternate
Matrix Compiler1:     482 opcodes
Matrix Compiler2: 10.51 KB object code size
