Circuit: * C:\Users\emanu\Desktop\DCE-GRUPO10\REALIMENTADOR\LTSpice\Draft1.asc

Number of points per decade reduced from 10000 to 8790.
WARNING: Less than two connections to node VCC.  This node is used by VCC1.
WARNING: Less than two connections to node VEE.  This node is used by VSS1.
WARNING: Less than two connections to node 5V.  This node is used by V2.
WARNING: Less than two connections to node -5V.  This node is used by V3.
Direct Newton iteration for .op point succeeded.

Date: Tue Mar 17 19:58:44 2020
Total elapsed time: 0.504 seconds.

tnom = 27
temp = 27
method = trap
totiter = 18
traniter = 0
tranpoints = 0
accept = 0
rejected = 0
matrix size = 38
fillins = 32
solver = Alternate
Matrix Compiler1:     172 opcodes
Matrix Compiler2: 3.78 KB object code size
