Circuit: * C:\Users\emanu\Desktop\DCE-GRUPO10\REALIMENTADOR\LTSpice\LazoAbierto-vs-LazoCerrado.asc

Number of points per decade reduced from 10000 to 7244.
Direct Newton iteration for .op point succeeded.

Date: Mon Mar 23 18:34:27 2020
Total elapsed time: 0.719 seconds.

tnom = 27
temp = 27
method = trap
totiter = 26
traniter = 0
tranpoints = 0
accept = 0
rejected = 0
matrix size = 55
fillins = 36
solver = Alternate
Matrix Compiler1:     255 opcodes
Matrix Compiler2: 5.63 KB object code size
