Circuit: * C:\Users\emanu\Desktop\DCE-GRUPO10\REALIMENTADOR\LTSpice\Realimentador.asc

Questionable use of curly braces in "b§e_abmgate yint 0 v={if(v(a)>{{vthresh}},{{vss}},{{vdd}})}"
    Error: undefined symbol in: "if([v](a)>((vthresh)),((vss)),((vdd)))"
Questionable use of curly braces in "b§e_abmgate yint 0 v={if(v(a)>{{vthresh}}&v(b)>{{vthresh}},{{vdd}},{{vss}})}"
    Error: undefined symbol in: "if([v](a)>((vthresh))&v(b)>((vthresh)),((vdd)),((vss)))"
Questionable use of curly braces in "b§e_abmgate yint 0 v={if(v(a)>{{vthresh}}&v(b)>{{vthresh}},{{vdd}},{{vss}})}"
    Error: undefined symbol in: "if([v](a)>((vthresh))&v(b)>((vthresh)),((vdd)),((vss)))"
Questionable use of curly braces in "b§e_abmgate yint 0 v={if(v(a)>{{vthresh}},{{vss}},{{vdd}})}"
    Error: undefined symbol in: "if([v](a)>((vthresh)),((vss)),((vdd)))"
Questionable use of curly braces in "b§e_abmgate yint 0 v={if(v(a)>{{vthresh}}&v(b)>{{vthresh}},{{vdd}},{{vss}})}"
    Error: undefined symbol in: "if([v](a)>((vthresh))&v(b)>((vthresh)),((vdd)),((vss)))"
Questionable use of curly braces in "b§e_abmgate yint 0 v={if(v(a)>{{vthresh}},{{vss}},{{vdd}})}"
    Error: undefined symbol in: "if([v](a)>((vthresh)),((vss)),((vdd)))"
WARNING: Less than two connections to node -5V.  This node is used by V2.
WARNING: Less than two connections to node NC_03.  This node is used by V:U4:_V11.
WARNING: Less than two connections to node NC_02.  This node is used by V:U4:_V12.
WARNING: Less than two connections to node NC_01.  This node is used by V:U4:_V13.
WARNING: Less than two connections to node NC_04.  This node is used by V:U4:_V14.
Instance "m:u4:_m12:1": Length shorter than recommended for a level 1 MOSFET.
Instance "m:u4:_m14:1": Length shorter than recommended for a level 1 MOSFET.
Instance "m:u4:_m15:1": Length shorter than recommended for a level 1 MOSFET.
Instance "m:u4:_m13:1": Length shorter than recommended for a level 1 MOSFET.
Instance "m:m2:2": Length shorter than recommended for a level 3 MOSFET.
Instance "m:m2:1": Length shorter than recommended for a level 3 MOSFET.
Instance "m:m1:2": Length shorter than recommended for a level 3 MOSFET.
Instance "m:m1:1": Length shorter than recommended for a level 3 MOSFET.
Per .tran options, skipping operating point for transient analysis.
Ignoring empty pin current: Ix(u4:vcci_1)
Changing Tseed to 4.88281e-11
Changing Tseed to 4.88281e-13
Changing Tseed to 4.88281e-10
Changing Tseed to 4.88281e-14
Changing Tseed to 4.88281e-09
Changing Tseed to 4.88281e-15
Changing Tseed to 4.88281e-08
Changing Tseed to 4.88281e-16
Changing Tseed to 4.88281e-07
Changing Tseed to 4.88281e-17
Changing Tseed to 4.88281e-06
Changing Tseed to 4.88281e-18
Heightened Def Con from 0 Changing Tseed to 1e-09
Changing Tseed to 1e-11
Changing Tseed to 1e-08
Changing Tseed to 1e-12
Changing Tseed to 1e-07
Changing Tseed to 1e-13
Changing Tseed to 1e-06
Changing Tseed to 1e-14
Changing Tseed to 1e-05
Changing Tseed to 1e-15
Changing Tseed to 0.0001
Changing Tseed to 1e-16
+Changing Tseed to 1e-09
Changing Tseed to 1e-11
Changing Tseed to 1e-08
Changing Tseed to 1e-12
Changing Tseed to 1e-07
Changing Tseed to 1e-13
Changing Tseed to 1e-06
Changing Tseed to 1e-14
Changing Tseed to 1e-05
Changing Tseed to 1e-15
Changing Tseed to 0.0001
Changing Tseed to 1e-16
+Changing Tseed to 1e-09
Changing Tseed to 1e-11
Changing Tseed to 1e-08
Changing Tseed to 1e-12
Changing Tseed to 1e-07
Changing Tseed to 1e-13
Changing Tseed to 1e-06
Changing Tseed to 1e-14
Changing Tseed to 1e-05
Changing Tseed to 1e-15
Changing Tseed to 0.0001
Changing Tseed to 1e-16
+Changing Tseed to 1e-09
Changing Tseed to 1e-11
Changing Tseed to 1e-08
Changing Tseed to 1e-12
Changing Tseed to 1e-07
Changing Tseed to 1e-13
Changing Tseed to 1e-06
Changing Tseed to 1e-14
Changing Tseed to 1e-05
Changing Tseed to 1e-15
Changing Tseed to 0.0001
Changing Tseed to 1e-16
+Changing Tseed to 1e-09
Changing Tseed to 1e-11
Changing Tseed to 1e-08
Changing Tseed to 1e-12
Changing Tseed to 1e-07
Changing Tseed to 1e-13
Changing Tseed to 1e-06
Changing Tseed to 1e-14
Changing Tseed to 1e-05
Changing Tseed to 1e-15
Changing Tseed to 0.0001
Changing Tseed to 1e-16
+Changing Tseed to 1e-09
Changing Tseed to 1e-11
Changing Tseed to 1e-08
Changing Tseed to 1e-12
Changing Tseed to 1e-07
Changing Tseed to 1e-13
Changing Tseed to 1e-06
Changing Tseed to 1e-14
Changing Tseed to 1e-05
Changing Tseed to 1e-15
Changing Tseed to 0.0001
Changing Tseed to 1e-16
+Changing Tseed to 1e-09
Changing Tseed to 1e-11
Changing Tseed to 1e-08
Changing Tseed to 1e-12
Changing Tseed to 1e-07
Changing Tseed to 1e-13
Changing Tseed to 1e-06
Changing Tseed to 1e-14
Changing Tseed to 1e-05
Changing Tseed to 1e-15
Changing Tseed to 0.0001
Changing Tseed to 1e-16
+Changing Tseed to 1e-09
Changing Tseed to 1e-11
Changing Tseed to 1e-08
Changing Tseed to 1e-12
Changing Tseed to 1e-07
Changing Tseed to 1e-13
Changing Tseed to 1e-06
Changing Tseed to 1e-14
Changing Tseed to 1e-05
Changing Tseed to 1e-15
Changing Tseed to 0.0001
Changing Tseed to 1e-16
+Changing Tseed to 1e-09
Changing Tseed to 1e-11
Changing Tseed to 1e-08
Changing Tseed to 1e-12
Changing Tseed to 1e-07
Changing Tseed to 1e-13
Changing Tseed to 1e-06
Changing Tseed to 1e-14
Changing Tseed to 1e-05
Changing Tseed to 1e-15
Changing Tseed to 0.0001
Changing Tseed to 1e-16
+Changing Tseed to 1e-09
Changing Tseed to 1e-11
Changing Tseed to 1e-08
Changing Tseed to 1e-12
Changing Tseed to 1e-07
Changing Tseed to 1e-13
Changing Tseed to 1e-06
Changing Tseed to 1e-14
Changing Tseed to 1e-05
Changing Tseed to 1e-15
Changing Tseed to 0.0001
Changing Tseed to 1e-16
+Changing Tseed to 1e-09
Changing Tseed to 1e-11
Changing Tseed to 1e-08
Changing Tseed to 1e-12
Changing Tseed to 1e-07
Changing Tseed to 1e-13
Changing Tseed to 1e-06
Changing Tseed to 1e-14
Changing Tseed to 1e-05
Changing Tseed to 1e-15
Changing Tseed to 0.0001
Changing Tseed to 1e-16
+Changing Tseed to 1e-09
Changing Tseed to 1e-11
Changing Tseed to 1e-08
Changing Tseed to 1e-12
Changing Tseed to 1e-07
Changing Tseed to 1e-13
Changing Tseed to 1e-06
Changing Tseed to 1e-14
Changing Tseed to 1e-05
Changing Tseed to 1e-15
Changing Tseed to 0.0001
Changing Tseed to 1e-16
+Changing Tseed to 1e-09
Changing Tseed to 1e-11
Changing Tseed to 1e-08
Changing Tseed to 1e-12
Changing Tseed to 1e-07
Changing Tseed to 1e-13
Changing Tseed to 1e-06
Changing Tseed to 1e-14
Changing Tseed to 1e-05
Changing Tseed to 1e-15
Changing Tseed to 0.0001
Changing Tseed to 1e-16
+Changing Tseed to 1e-09
Changing Tseed to 1e-11
Changing Tseed to 1e-08
Changing Tseed to 1e-12
Changing Tseed to 1e-07
Changing Tseed to 1e-13
Changing Tseed to 1e-06
Changing Tseed to 1e-14
Changing Tseed to 1e-05
Changing Tseed to 1e-15
Changing Tseed to 0.0001
Changing Tseed to 1e-16
+Changing Tseed to 1e-09
Changing Tseed to 1e-11
Changing Tseed to 1e-08
Changing Tseed to 1e-12
Changing Tseed to 1e-07
Changing Tseed to 1e-13
Changing Tseed to 1e-06
Changing Tseed to 1e-14
Changing Tseed to 1e-05
Changing Tseed to 1e-15
Changing Tseed to 0.0001
Changing Tseed to 1e-16
+Changing Tseed to 1e-09
Changing Tseed to 1e-11
Changing Tseed to 1e-08
Changing Tseed to 1e-12
Changing Tseed to 1e-07
Changing Tseed to 1e-13
Changing Tseed to 1e-06
Changing Tseed to 1e-14
Changing Tseed to 1e-05
Changing Tseed to 1e-15
Changing Tseed to 0.0001
Changing Tseed to 1e-16
+Changing Tseed to 1e-09
Changing Tseed to 1e-11
Changing Tseed to 1e-08
Changing Tseed to 1e-12
Changing Tseed to 1e-07
Changing Tseed to 1e-13
Changing Tseed to 1e-06
Changing Tseed to 1e-14
Changing Tseed to 1e-05
Changing Tseed to 1e-15
Changing Tseed to 0.0001
Changing Tseed to 1e-16
+Changing Tseed to 1e-09
Changing Tseed to 1e-11
Changing Tseed to 1e-08
Changing Tseed to 1e-12
Changing Tseed to 1e-07
Changing Tseed to 1e-13
Changing Tseed to 1e-06
Changing Tseed to 1e-14
Changing Tseed to 1e-05
Changing Tseed to 1e-15
Changing Tseed to 0.0001
Changing Tseed to 1e-16
+Changing Tseed to 1e-09
Changing Tseed to 1e-11
Changing Tseed to 1e-08
Changing Tseed to 1e-12
Changing Tseed to 1e-07
Changing Tseed to 1e-13
Changing Tseed to 1e-06
Changing Tseed to 1e-14
Changing Tseed to 1e-05
Changing Tseed to 1e-15
Changing Tseed to 0.0001
Changing Tseed to 1e-16
+Changing Tseed to 1e-09
Changing Tseed to 1e-11
Changing Tseed to 1e-08
Changing Tseed to 1e-12
Changing Tseed to 1e-07
Changing Tseed to 1e-13
Changing Tseed to 1e-06
Changing Tseed to 1e-14
Changing Tseed to 1e-05
Changing Tseed to 1e-15
Changing Tseed to 0.0001
Changing Tseed to 1e-16
+Changing Tseed to 1e-09
Changing Tseed to 1e-11
Changing Tseed to 1e-08
Changing Tseed to 1e-12
Changing Tseed to 1e-07
Changing Tseed to 1e-13
Changing Tseed to 1e-06
Changing Tseed to 1e-14
Changing Tseed to 1e-05
Changing Tseed to 1e-15
Changing Tseed to 0.0001
Changing Tseed to 1e-16
+Changing Tseed to 1e-09
Changing Tseed to 1e-11
Changing Tseed to 1e-08
Changing Tseed to 1e-12
Changing Tseed to 1e-07
Changing Tseed to 1e-13
Changing Tseed to 1e-06
Changing Tseed to 1e-14
Changing Tseed to 1e-05
Changing Tseed to 1e-15
Changing Tseed to 0.0001
Changing Tseed to 1e-16
+Changing Tseed to 1e-09
Changing Tseed to 1e-11
Changing Tseed to 1e-08
Changing Tseed to 1e-12
Changing Tseed to 1e-07
Changing Tseed to 1e-13
Changing Tseed to 1e-06
Changing Tseed to 1e-14
Changing Tseed to 1e-05
Changing Tseed to 1e-15
Changing Tseed to 0.0001
Changing Tseed to 1e-16
+Changing Tseed to 1e-09
Changing Tseed to 1e-11
Changing Tseed to 1e-08
Changing Tseed to 1e-12
Changing Tseed to 1e-07
Changing Tseed to 1e-13
Changing Tseed to 1e-06
Changing Tseed to 1e-14
Changing Tseed to 1e-05
Changing Tseed to 1e-15
Changing Tseed to 0.0001
Changing Tseed to 1e-16
+Changing Tseed to 1e-09
Changing Tseed to 1e-11
Changing Tseed to 1e-08
Changing Tseed to 1e-12
Changing Tseed to 1e-07
Changing Tseed to 1e-13
Changing Tseed to 1e-06
Changing Tseed to 1e-14
Changing Tseed to 1e-05
Changing Tseed to 1e-15
Changing Tseed to 0.0001
Changing Tseed to 1e-16
+Changing Tseed to 1e-09
Changing Tseed to 1e-11
Changing Tseed to 1e-08
Changing Tseed to 1e-12
Changing Tseed to 1e-07
Changing Tseed to 1e-13
Changing Tseed to 1e-06
Changing Tseed to 1e-14
Changing Tseed to 1e-05
Changing Tseed to 1e-15
Changing Tseed to 0.0001
Changing Tseed to 1e-16
+Changing Tseed to 1e-09
Changing Tseed to 1e-11
Changing Tseed to 1e-08
Changing Tseed to 1e-12
Changing Tseed to 1e-07
Changing Tseed to 1e-13
Changing Tseed to 1e-06
Changing Tseed to 1e-14
Changing Tseed to 1e-05
Changing Tseed to 1e-15
Changing Tseed to 0.0001
Changing Tseed to 1e-16
+Changing Tseed to 1e-09
Changing Tseed to 1e-11
Changing Tseed to 1e-08
Changing Tseed to 1e-12
Changing Tseed to 1e-07
Changing Tseed to 1e-13
Changing Tseed to 1e-06
Changing Tseed to 1e-14
Changing Tseed to 1e-05
Changing Tseed to 1e-15
Changing Tseed to 0.0001
Changing Tseed to 1e-16
+Changing Tseed to 1e-09
Changing Tseed to 1e-11
Changing Tseed to 1e-08
Changing Tseed to 1e-12
Changing Tseed to 1e-07
Changing Tseed to 1e-13
Changing Tseed to 1e-06
Changing Tseed to 1e-14
Changing Tseed to 1e-05
Changing Tseed to 1e-15
Changing Tseed to 0.0001
Changing Tseed to 1e-16
+Changing Tseed to 1e-09
Changing Tseed to 1e-11
Changing Tseed to 1e-08
Changing Tseed to 1e-12
Changing Tseed to 1e-07
Changing Tseed to 1e-13
Changing Tseed to 1e-06
Changing Tseed to 1e-14
Changing Tseed to 1e-05
Changing Tseed to 1e-15
Changing Tseed to 0.0001
Changing Tseed to 1e-16
+Changing Tseed to 1e-09
Changing Tseed to 1e-11
Changing Tseed to 1e-08
Changing Tseed to 1e-12
Changing Tseed to 1e-07
Changing Tseed to 1e-13
Changing Tseed to 1e-06
Changing Tseed to 1e-14
Changing Tseed to 1e-05
Changing Tseed to 1e-15
Changing Tseed to 0.0001
Changing Tseed to 1e-16
+Changing Tseed to 1e-09
Changing Tseed to 1e-11
Changing Tseed to 1e-08
Changing Tseed to 1e-12
Changing Tseed to 1e-07
Changing Tseed to 1e-13
Changing Tseed to 1e-06
Changing Tseed to 1e-14
Changing Tseed to 1e-05
Changing Tseed to 1e-15
Changing Tseed to 0.0001
Changing Tseed to 1e-16
+Changing Tseed to 1e-09
Changing Tseed to 1e-11
Changing Tseed to 1e-08
Changing Tseed to 1e-12
Changing Tseed to 1e-07
Changing Tseed to 1e-13
Changing Tseed to 1e-06
Changing Tseed to 1e-14
Changing Tseed to 1e-05
Changing Tseed to 1e-15
Changing Tseed to 0.0001
Changing Tseed to 1e-16
+Changing Tseed to 1e-09
Changing Tseed to 1e-11
Changing Tseed to 1e-08
Changing Tseed to 1e-12
Changing Tseed to 1e-07
Changing Tseed to 1e-13
Changing Tseed to 1e-06
Changing Tseed to 1e-14
Changing Tseed to 1e-05
Changing Tseed to 1e-15
Changing Tseed to 0.0001
Changing Tseed to 1e-16
+Changing Tseed to 1e-09
Changing Tseed to 1e-11
Changing Tseed to 1e-08
Changing Tseed to 1e-12
Changing Tseed to 1e-07
Changing Tseed to 1e-13
Changing Tseed to 1e-06
Changing Tseed to 1e-14
Changing Tseed to 1e-05
Changing Tseed to 1e-15
Changing Tseed to 0.0001
Changing Tseed to 1e-16
+Changing Tseed to 1e-09
Changing Tseed to 1e-11
Changing Tseed to 1e-08
Changing Tseed to 1e-12
Changing Tseed to 1e-07
Changing Tseed to 1e-13
Changing Tseed to 1e-06
Changing Tseed to 1e-14
Changing Tseed to 1e-05
Changing Tseed to 1e-15
Changing Tseed to 0.0001
Changing Tseed to 1e-16
+Changing Tseed to 1e-09
Changing Tseed to 1e-11
Changing Tseed to 1e-08
Changing Tseed to 1e-12
Changing Tseed to 1e-07
Changing Tseed to 1e-13
Changing Tseed to 1e-06
Changing Tseed to 1e-14
Changing Tseed to 1e-05
Changing Tseed to 1e-15
Changing Tseed to 0.0001
Changing Tseed to 1e-16
+Changing Tseed to 1e-09
Changing Tseed to 1e-11
Changing Tseed to 1e-08
Changing Tseed to 1e-12
Changing Tseed to 1e-07
Changing Tseed to 1e-13
Changing Tseed to 1e-06
Changing Tseed to 1e-14
Changing Tseed to 1e-05
Changing Tseed to 1e-15
Changing Tseed to 0.0001
Changing Tseed to 1e-16
+Changing Tseed to 1e-09
Changing Tseed to 1e-11
Changing Tseed to 1e-08
Changing Tseed to 1e-12
Changing Tseed to 1e-07
Changing Tseed to 1e-13
Changing Tseed to 1e-06
Changing Tseed to 1e-14
Changing Tseed to 1e-05
Changing Tseed to 1e-15
Changing Tseed to 0.0001
Changing Tseed to 1e-16
to 7.25e-18
Heightened Def Con from 7.25e-18 +++++++++++++++++++++++++++to 2.74665e-13
Heightened Def Con from 2.74665e-13 +++++++++++++++++++++++++to 1.78528e-11
Heightened Def Con from 5.00112e-05 to 5.00113e-05
Heightened Def Con from 7.51177e-05 to 7.51178e-05
Heightened Def Con from 9.96222e-05 to 9.96242e-05
Heightened Def Con from 9.96484e-05 to 9.96485e-05
Heightened Def Con from 0.000124791 to 0.000124791
Heightened Def Con from 0.000149868 to 0.00014987
Heightened Def Con from 0.000149872 to 0.000149873
Heightened Def Con from 0.000173534 to 0.000173534
Heightened Def Con from 0.000173561 to 0.000173561
Heightened Def Con from 0.00019957 to 0.00019957
Heightened Def Con from 0.000223228 to 0.000223228
Heightened Def Con from 0.000249266 to 0.000249268
Heightened Def Con from 0.000249269 to 0.000249269
Heightened Def Con from 0.000272892 to 0.000272892
Heightened Def Con from 0.000275076 to 0.000275076
Heightened Def Con from 0.000275104 to 0.000275104
Heightened Def Con from 0.000275748 to 0.000275772
Heightened Def Con from 0.000275774 to 0.000275775
Heightened Def Con from 0.00029895 to 0.000298952
Heightened Def Con from 0.000298953 to 0.000298953
Heightened Def Con from 0.000324935 to 0.000324935
Heightened Def Con from 0.000348646 to 0.000348648
Heightened Def Con from 0.000348649 to 0.000348649
Heightened Def Con from 0.000374624 to 0.000374644
Heightened Def Con from 0.000374648 to 0.00037465
Heightened Def Con from 0.000374651 to 0.000374652
Heightened Def Con from 0.000398335 to 0.000398337
Heightened Def Con from 0.000398339 to 0.000398339
Heightened Def Con from 0.00042432 to 0.000424322
Heightened Def Con from 0.000424324 to 0.000424324
Heightened Def Con from 0.000448019 to 0.000448021
Heightened Def Con from 0.000448022 to 0.000448022
Heightened Def Con from 0.000450182 to 0.000450182
Heightened Def Con from 0.000450202 to 0.000450208
Heightened Def Con from 0.000450209 to 0.00045021
Heightened Def Con from 0.000450728 to 0.000450728
Heightened Def Con from 0.000473992 to 0.000473992
Heightened Def Con from 0.000499959 to 0.000499961
Heightened Def Con from 0.000499963 to 0.000499963

Date: Tue Mar 17 18:21:42 2020
Total elapsed time: 46.958 seconds.

tnom = 27
temp = 27
method = modified trap
totiter = 559167
traniter = 559167
tranpoints = 158531
accept = 130866
rejected = 27317
matrix size = 440
fillins = 743
solver = Alternate
Thread vector: 55.6/31.9[6] 17.5/8.7[6] 12.0/5.9[6] 4.0/4.4[1]  2592/500
Matrix Compiler1: 83.46 KB object code size  15.0/8.6/[4.7]
Matrix Compiler2: 53.27 KB object code size  6.5/6.6/[3.0]

