Circuit: * C:\Users\emanu\Desktop\DCE-GRUPO10\REALIMENTADOR\LTSpice\Realimentador.asc

Questionable use of curly braces in "b§e_abmgate yint 0 v={if(v(a)>{{vthresh}},{{vss}},{{vdd}})}"
    Error: undefined symbol in: "if([v](a)>((vthresh)),((vss)),((vdd)))"
Questionable use of curly braces in "b§e_abmgate yint 0 v={if(v(a)>{{vthresh}}&v(b)>{{vthresh}},{{vdd}},{{vss}})}"
    Error: undefined symbol in: "if([v](a)>((vthresh))&v(b)>((vthresh)),((vdd)),((vss)))"
Questionable use of curly braces in "b§e_abmgate yint 0 v={if(v(a)>{{vthresh}}&v(b)>{{vthresh}},{{vdd}},{{vss}})}"
    Error: undefined symbol in: "if([v](a)>((vthresh))&v(b)>((vthresh)),((vdd)),((vss)))"
Questionable use of curly braces in "b§e_abmgate yint 0 v={if(v(a)>{{vthresh}},{{vss}},{{vdd}})}"
    Error: undefined symbol in: "if([v](a)>((vthresh)),((vss)),((vdd)))"
Questionable use of curly braces in "b§e_abmgate yint 0 v={if(v(a)>{{vthresh}}&v(b)>{{vthresh}},{{vdd}},{{vss}})}"
    Error: undefined symbol in: "if([v](a)>((vthresh))&v(b)>((vthresh)),((vdd)),((vss)))"
Questionable use of curly braces in "b§e_abmgate yint 0 v={if(v(a)>{{vthresh}},{{vss}},{{vdd}})}"
    Error: undefined symbol in: "if([v](a)>((vthresh)),((vss)),((vdd)))"
WARNING: Less than two connections to node -5V.  This node is used by V2.
WARNING: Less than two connections to node NC_03.  This node is used by V:U4:_V11.
WARNING: Less than two connections to node NC_02.  This node is used by V:U4:_V12.
WARNING: Less than two connections to node NC_01.  This node is used by V:U4:_V13.
WARNING: Less than two connections to node NC_04.  This node is used by V:U4:_V14.
Instance "m:u4:_m12:1": Length shorter than recommended for a level 1 MOSFET.
Instance "m:u4:_m14:1": Length shorter than recommended for a level 1 MOSFET.
Instance "m:u4:_m15:1": Length shorter than recommended for a level 1 MOSFET.
Instance "m:u4:_m13:1": Length shorter than recommended for a level 1 MOSFET.
Instance "m:m2:2": Length shorter than recommended for a level 3 MOSFET.
Instance "m:m2:1": Length shorter than recommended for a level 3 MOSFET.
Instance "m:m1:2": Length shorter than recommended for a level 3 MOSFET.
Instance "m:m1:1": Length shorter than recommended for a level 3 MOSFET.
Per .tran options, skipping operating point for transient analysis.
Ignoring empty pin current: Ix(u4:vcci_1)
Changing Tseed to 5.85937e-11
Changing Tseed to 5.85937e-13
Changing Tseed to 5.85937e-10
Changing Tseed to 5.85937e-14
Changing Tseed to 5.85937e-09
Changing Tseed to 5.85937e-15
Changing Tseed to 5.85937e-08
Changing Tseed to 5.85937e-16
Changing Tseed to 5.85937e-07
Changing Tseed to 5.85937e-17
Changing Tseed to 5.85937e-06
Changing Tseed to 5.85937e-18
Heightened Def Con from 0 Changing Tseed to 1e-09
Changing Tseed to 1e-11
Changing Tseed to 1e-08
Changing Tseed to 1e-12
Changing Tseed to 1e-07
Changing Tseed to 1e-13
Changing Tseed to 1e-06
Changing Tseed to 1e-14
Changing Tseed to 1e-05
Changing Tseed to 1e-15
Changing Tseed to 0.0001
Changing Tseed to 1e-16
+Changing Tseed to 1e-09
Changing Tseed to 1e-11
Changing Tseed to 1e-08
Changing Tseed to 1e-12
Changing Tseed to 1e-07
Changing Tseed to 1e-13
Changing Tseed to 1e-06
Changing Tseed to 1e-14
Changing Tseed to 1e-05
Changing Tseed to 1e-15
Changing Tseed to 0.0001
Changing Tseed to 1e-16
+Changing Tseed to 1e-09
Changing Tseed to 1e-11
Changing Tseed to 1e-08
Changing Tseed to 1e-12
Changing Tseed to 1e-07
Changing Tseed to 1e-13
Changing Tseed to 1e-06
Changing Tseed to 1e-14
Changing Tseed to 1e-05
Changing Tseed to 1e-15
Changing Tseed to 0.0001
Changing Tseed to 1e-16
+Changing Tseed to 1e-09
Changing Tseed to 1e-11
Changing Tseed to 1e-08
Changing Tseed to 1e-12
Changing Tseed to 1e-07
Changing Tseed to 1e-13
Changing Tseed to 1e-06
Changing Tseed to 1e-14
Changing Tseed to 1e-05
Changing Tseed to 1e-15
Changing Tseed to 0.0001
Changing Tseed to 1e-16
+Changing Tseed to 1e-09
Changing Tseed to 1e-11
Changing Tseed to 1e-08
Changing Tseed to 1e-12
Changing Tseed to 1e-07
Changing Tseed to 1e-13
Changing Tseed to 1e-06
Changing Tseed to 1e-14
Changing Tseed to 1e-05
Changing Tseed to 1e-15
Changing Tseed to 0.0001
Changing Tseed to 1e-16
+Changing Tseed to 1e-09
Changing Tseed to 1e-11
Changing Tseed to 1e-08
Changing Tseed to 1e-12
Changing Tseed to 1e-07
Changing Tseed to 1e-13
Changing Tseed to 1e-06
Changing Tseed to 1e-14
Changing Tseed to 1e-05
Changing Tseed to 1e-15
Changing Tseed to 0.0001
Changing Tseed to 1e-16
+Changing Tseed to 1e-09
Changing Tseed to 1e-11
Changing Tseed to 1e-08
Changing Tseed to 1e-12
Changing Tseed to 1e-07
Changing Tseed to 1e-13
Changing Tseed to 1e-06
Changing Tseed to 1e-14
Changing Tseed to 1e-05
Changing Tseed to 1e-15
Changing Tseed to 0.0001
Changing Tseed to 1e-16
+Changing Tseed to 1e-09
Changing Tseed to 1e-11
Changing Tseed to 1e-08
Changing Tseed to 1e-12
Changing Tseed to 1e-07
Changing Tseed to 1e-13
Changing Tseed to 1e-06
Changing Tseed to 1e-14
Changing Tseed to 1e-05
Changing Tseed to 1e-15
Changing Tseed to 0.0001
Changing Tseed to 1e-16
+Changing Tseed to 1e-09
Changing Tseed to 1e-11
Changing Tseed to 1e-08
Changing Tseed to 1e-12
Changing Tseed to 1e-07
Changing Tseed to 1e-13
Changing Tseed to 1e-06
Changing Tseed to 1e-14
Changing Tseed to 1e-05
Changing Tseed to 1e-15
Changing Tseed to 0.0001
Changing Tseed to 1e-16
+Changing Tseed to 1e-09
Changing Tseed to 1e-11
Changing Tseed to 1e-08
Changing Tseed to 1e-12
Changing Tseed to 1e-07
Changing Tseed to 1e-13
Changing Tseed to 1e-06
Changing Tseed to 1e-14
Changing Tseed to 1e-05
Changing Tseed to 1e-15
Changing Tseed to 0.0001
Changing Tseed to 1e-16
+Changing Tseed to 1e-09
Changing Tseed to 1e-11
Changing Tseed to 1e-08
Changing Tseed to 1e-12
Changing Tseed to 1e-07
Changing Tseed to 1e-13
Changing Tseed to 1e-06
Changing Tseed to 1e-14
Changing Tseed to 1e-05
Changing Tseed to 1e-15
Changing Tseed to 0.0001
Changing Tseed to 1e-16
+Changing Tseed to 1e-09
Changing Tseed to 1e-11
Changing Tseed to 1e-08
Changing Tseed to 1e-12
Changing Tseed to 1e-07
Changing Tseed to 1e-13
Changing Tseed to 1e-06
Changing Tseed to 1e-14
Changing Tseed to 1e-05
Changing Tseed to 1e-15
Changing Tseed to 0.0001
Changing Tseed to 1e-16
+Changing Tseed to 1e-09
Changing Tseed to 1e-11
Changing Tseed to 1e-08
Changing Tseed to 1e-12
Changing Tseed to 1e-07
Changing Tseed to 1e-13
Changing Tseed to 1e-06
Changing Tseed to 1e-14
Changing Tseed to 1e-05
Changing Tseed to 1e-15
Changing Tseed to 0.0001
Changing Tseed to 1e-16
+Changing Tseed to 1e-09
Changing Tseed to 1e-11
Changing Tseed to 1e-08
Changing Tseed to 1e-12
Changing Tseed to 1e-07
Changing Tseed to 1e-13
Changing Tseed to 1e-06
Changing Tseed to 1e-14
Changing Tseed to 1e-05
Changing Tseed to 1e-15
Changing Tseed to 0.0001
Changing Tseed to 1e-16
+Changing Tseed to 1e-09
Changing Tseed to 1e-11
Changing Tseed to 1e-08
Changing Tseed to 1e-12
Changing Tseed to 1e-07
Changing Tseed to 1e-13
Changing Tseed to 1e-06
Changing Tseed to 1e-14
Changing Tseed to 1e-05
Changing Tseed to 1e-15
Changing Tseed to 0.0001
Changing Tseed to 1e-16
+Changing Tseed to 1e-09
Changing Tseed to 1e-11
Changing Tseed to 1e-08
Changing Tseed to 1e-12
Changing Tseed to 1e-07
Changing Tseed to 1e-13
Changing Tseed to 1e-06
Changing Tseed to 1e-14
Changing Tseed to 1e-05
Changing Tseed to 1e-15
Changing Tseed to 0.0001
Changing Tseed to 1e-16
+Changing Tseed to 1e-09
Changing Tseed to 1e-11
Changing Tseed to 1e-08
Changing Tseed to 1e-12
Changing Tseed to 1e-07
Changing Tseed to 1e-13
Changing Tseed to 1e-06
Changing Tseed to 1e-14
Changing Tseed to 1e-05
Changing Tseed to 1e-15
Changing Tseed to 0.0001
Changing Tseed to 1e-16
+Changing Tseed to 1e-09
Changing Tseed to 1e-11
Changing Tseed to 1e-08
Changing Tseed to 1e-12
Changing Tseed to 1e-07
Changing Tseed to 1e-13
Changing Tseed to 1e-06
Changing Tseed to 1e-14
Changing Tseed to 1e-05
Changing Tseed to 1e-15
Changing Tseed to 0.0001
Changing Tseed to 1e-16
+Changing Tseed to 1e-09
Changing Tseed to 1e-11
Changing Tseed to 1e-08
Changing Tseed to 1e-12
Changing Tseed to 1e-07
Changing Tseed to 1e-13
Changing Tseed to 1e-06
Changing Tseed to 1e-14
Changing Tseed to 1e-05
Changing Tseed to 1e-15
Changing Tseed to 0.0001
Changing Tseed to 1e-16
+Changing Tseed to 1e-09
Changing Tseed to 1e-11
Changing Tseed to 1e-08
Changing Tseed to 1e-12
Changing Tseed to 1e-07
Changing Tseed to 1e-13
Changing Tseed to 1e-06
Changing Tseed to 1e-14
Changing Tseed to 1e-05
Changing Tseed to 1e-15
Changing Tseed to 0.0001
Changing Tseed to 1e-16
+Changing Tseed to 1e-09
Changing Tseed to 1e-11
Changing Tseed to 1e-08
Changing Tseed to 1e-12
Changing Tseed to 1e-07
Changing Tseed to 1e-13
Changing Tseed to 1e-06
Changing Tseed to 1e-14
Changing Tseed to 1e-05
Changing Tseed to 1e-15
Changing Tseed to 0.0001
Changing Tseed to 1e-16
+Changing Tseed to 1e-09
Changing Tseed to 1e-11
Changing Tseed to 1e-08
Changing Tseed to 1e-12
Changing Tseed to 1e-07
Changing Tseed to 1e-13
Changing Tseed to 1e-06
Changing Tseed to 1e-14
Changing Tseed to 1e-05
Changing Tseed to 1e-15
Changing Tseed to 0.0001
Changing Tseed to 1e-16
+Changing Tseed to 1e-09
Changing Tseed to 1e-11
Changing Tseed to 1e-08
Changing Tseed to 1e-12
Changing Tseed to 1e-07
Changing Tseed to 1e-13
Changing Tseed to 1e-06
Changing Tseed to 1e-14
Changing Tseed to 1e-05
Changing Tseed to 1e-15
Changing Tseed to 0.0001
Changing Tseed to 1e-16
+Changing Tseed to 1e-09
Changing Tseed to 1e-11
Changing Tseed to 1e-08
Changing Tseed to 1e-12
Changing Tseed to 1e-07
Changing Tseed to 1e-13
Changing Tseed to 1e-06
Changing Tseed to 1e-14
Changing Tseed to 1e-05
Changing Tseed to 1e-15
Changing Tseed to 0.0001
Changing Tseed to 1e-16
+Changing Tseed to 1e-09
Changing Tseed to 1e-11
Changing Tseed to 1e-08
Changing Tseed to 1e-12
Changing Tseed to 1e-07
Changing Tseed to 1e-13
Changing Tseed to 1e-06
Changing Tseed to 1e-14
Changing Tseed to 1e-05
Changing Tseed to 1e-15
Changing Tseed to 0.0001
Changing Tseed to 1e-16
+Changing Tseed to 1e-09
Changing Tseed to 1e-11
Changing Tseed to 1e-08
Changing Tseed to 1e-12
Changing Tseed to 1e-07
Changing Tseed to 1e-13
Changing Tseed to 1e-06
Changing Tseed to 1e-14
Changing Tseed to 1e-05
Changing Tseed to 1e-15
Changing Tseed to 0.0001
Changing Tseed to 1e-16
+Changing Tseed to 1e-09
Changing Tseed to 1e-11
Changing Tseed to 1e-08
Changing Tseed to 1e-12
Changing Tseed to 1e-07
Changing Tseed to 1e-13
Changing Tseed to 1e-06
Changing Tseed to 1e-14
Changing Tseed to 1e-05
Changing Tseed to 1e-15
Changing Tseed to 0.0001
Changing Tseed to 1e-16
+Changing Tseed to 1e-09
Changing Tseed to 1e-11
Changing Tseed to 1e-08
Changing Tseed to 1e-12
Changing Tseed to 1e-07
Changing Tseed to 1e-13
Changing Tseed to 1e-06
Changing Tseed to 1e-14
Changing Tseed to 1e-05
Changing Tseed to 1e-15
Changing Tseed to 0.0001
Changing Tseed to 1e-16
+Changing Tseed to 1e-09
Changing Tseed to 1e-11
Changing Tseed to 1e-08
Changing Tseed to 1e-12
Changing Tseed to 1e-07
Changing Tseed to 1e-13
Changing Tseed to 1e-06
Changing Tseed to 1e-14
Changing Tseed to 1e-05
Changing Tseed to 1e-15
Changing Tseed to 0.0001
Changing Tseed to 1e-16
+Changing Tseed to 1e-09
Changing Tseed to 1e-11
Changing Tseed to 1e-08
Changing Tseed to 1e-12
Changing Tseed to 1e-07
Changing Tseed to 1e-13
Changing Tseed to 1e-06
Changing Tseed to 1e-14
Changing Tseed to 1e-05
Changing Tseed to 1e-15
Changing Tseed to 0.0001
Changing Tseed to 1e-16
+Changing Tseed to 1e-09
Changing Tseed to 1e-11
to 1.125e-11
Heightened Def Con from 1.125e-11 +++++++++++++++++++++++++to 2.88281e-11
Heightened Def Con from 5.00105e-05 to 5.00106e-05
Heightened Def Con from 7.97677e-05 to 7.97678e-05
Heightened Def Con from 9.52159e-05 to 9.52169e-05
Heightened Def Con from 9.91589e-05 to 9.9159e-05
Heightened Def Con from 0.000129471 to 0.000129472
Heightened Def Con from 0.000144338 to 0.000144338
Heightened Def Con from 0.000146033 to 0.000146033
Heightened Def Con from 0.00014817 to 0.00014817
Heightened Def Con from 0.000148171 to 0.000148172
Heightened Def Con from 0.000151386 to 0.000151386
Heightened Def Con from 0.000163758 to 0.000163758
Heightened Def Con from 0.000165986 to 0.000165991
Heightened Def Con from 0.000165992 to 0.000165992
Heightened Def Con from 0.000173029 to 0.000173029
Heightened Def Con from 0.000184786 to 0.000184786
Heightened Def Con from 0.00018807 to 0.00018807
Heightened Def Con from 0.000198294 to 0.000198296
Heightened Def Con from 0.000198298 to 0.000198298
Heightened Def Con from 0.00020867 to 0.000208673
Heightened Def Con from 0.000208674 to 0.000208674
Heightened Def Con from 0.000210143 to 0.000210143
Heightened Def Con from 0.000210154 to 0.00021016
Heightened Def Con from 0.000218274 to 0.000218277
Heightened Def Con from 0.000218278 to 0.000218279
Heightened Def Con from 0.000220655 to 0.000220655
Heightened Def Con from 0.000222106 to 0.000222106
Heightened Def Con from 0.000225015 to 0.000225019
Heightened Def Con from 0.000225024 to 0.000225024
Heightened Def Con from 0.000227818 to 0.000227819
Heightened Def Con from 0.000227822 to 0.00022784
Heightened Def Con from 0.000240294 to 0.000240296
Heightened Def Con from 0.000240297 to 0.000240297
Heightened Def Con from 0.000242626 to 0.000242628
Heightened Def Con from 0.000242629 to 0.000242629
Heightened Def Con from 0.000245644 to 0.000245644
Heightened Def Con from 0.000245645 to 0.000245645
Heightened Def Con from 0.000246375 to 0.000246381
Heightened Def Con from 0.000246382 to 0.000246382
Heightened Def Con from 0.000246393 to 0.000246404
Heightened Def Con from 0.000249439 to 0.000249441
Heightened Def Con from 0.000249442 to 0.000249442
Heightened Def Con from 0.000261717 to 0.000261719
Heightened Def Con from 0.000261721 to 0.000261721
Heightened Def Con from 0.000264605 to 0.000264605
Heightened Def Con from 0.000272759 to 0.000272759
Heightened Def Con from 0.000283726 to 0.000283728
Heightened Def Con from 0.000283729 to 0.000283729
Heightened Def Con from 0.00028686 to 0.00028686
Heightened Def Con from 0.000286862 to 0.000286882
Heightened Def Con from 0.000297918 to 0.000297918
Heightened Def Con from 0.000310482 to 0.000310482
Heightened Def Con from 0.000313881 to 0.000313881
Heightened Def Con from 0.000313881 to 0.000313881
Heightened Def Con from 0.000313881 to 0.000313881
Heightened Def Con from 0.000323389 to 0.000323389
Heightened Def Con from 0.000334212 to 0.000334212
Heightened Def Con from 0.000336131 to 0.000336131
Heightened Def Con from 0.000336153 to 0.000336159
Heightened Def Con from 0.00033616 to 0.00033616
Heightened Def Con from 0.00033617 to 0.000336181
Heightened Def Con from 0.000344597 to 0.000344599
Heightened Def Con from 0.0003446 to 0.0003446
Heightened Def Con from 0.000346146 to 0.000346149
Heightened Def Con from 0.00034615 to 0.00034615
Heightened Def Con from 0.000346161 to 0.000346172
Heightened Def Con from 0.000347249 to 0.00034725
Heightened Def Con from 0.00034725 to 0.00034725
Heightened Def Con from 0.00034725 to 0.00034725
Heightened Def Con from 0.000351765 to 0.000351789
Heightened Def Con from 0.000351791 to 0.000351792
Heightened Def Con from 0.000352811 to 0.000352811
Heightened Def Con from 0.000352823 to 0.000352829
Heightened Def Con from 0.000355463 to 0.000355463
Heightened Def Con from 0.000357863 to 0.000357863
Heightened Def Con from 0.000370206 to 0.000370207
Heightened Def Con from 0.000377798 to 0.0003778
Heightened Def Con from 0.000377801 to 0.000377801
Heightened Def Con from 0.000381423 to 0.000381423
Heightened Def Con from 0.000393702 to 0.000393702
Heightened Def Con from 0.000399749 to 0.000399751
Heightened Def Con from 0.000399753 to 0.000399753
Heightened Def Con from 0.000405004 to 0.000405006
Heightened Def Con from 0.000405007 to 0.000405007
Heightened Def Con from 0.000426626 to 0.000426627
Heightened Def Con from 0.000430959 to 0.000430959
Heightened Def Con from 0.000444118 to 0.000444121
Heightened Def Con from 0.000444122 to 0.000444122
Heightened Def Con from 0.000449932 to 0.000449934
Heightened Def Con from 0.000449936 to 0.000449936
Heightened Def Con from 0.000455428 to 0.000455428
Heightened Def Con from 0.000469291 to 0.000469295
Heightened Def Con from 0.000469295 to 0.000469295
Heightened Def Con from 0.000476175 to 0.000476175
Heightened Def Con from 0.000477517 to 0.000477517

Date: Wed Mar 18 20:04:13 2020
Total elapsed time: 47.992 seconds.

tnom = 27
temp = 27
method = modified trap
totiter = 698418
traniter = 698418
tranpoints = 203035
accept = 160145
rejected = 42667
matrix size = 418
fillins = 736
solver = Alternate
Thread vector: 59.1/29.3[5] 13.5/8.0[5] 9.3/4.8[5] 3.8/3.3[3]  2592/500
Matrix Compiler1: 85.05 KB object code size  12.8/8.3/[4.7]
Matrix Compiler2: 51.10 KB object code size  5.7/6.1/[3.0]

