Questionable use of curly braces in "b1 n001 0 v{if(v(error)>v(vtriang),5,0)}"
    Error: undefined symbol in: "if([v](error)>v(vtriang),5,0)"
Circuit: * C:\Users\emanu\Desktop\DCE-GRUPO10\REALIMENTADOR\LTSpice\Test.asc

WARNING: Less than two connections to node -5V.  This node is used by V2.
Per .tran options, skipping operating point for transient analysis.
N-Period=all
Fourier components of V(vo)
DC component:-0.0115364

Harmonic	Frequency	 Fourier 	Normalized	 Phase  	Normalized
 Number 	  [Hz]   	Component	 Component	[degree]	Phase [deg]
    1   	 2.000e+4	 1.806e+1	 1.000e+0	   -5.24°	    0.00°
    2   	 4.000e+4	 1.522e-2	 8.427e-4	   65.45°	   70.69°
    3   	 6.000e+4	 8.900e-2	 4.927e-3	  151.40°	  156.65°
Total Harmonic Distortion: 0.499874%(11.065874%)



Date: Thu Mar 19 14:30:10 2020
Total elapsed time: 0.292 seconds.

tnom = 27
temp = 27
method = modified trap
totiter = 14955
traniter = 14955
tranpoints = 6114
accept = 4591
rejected = 1523
matrix size = 50
fillins = 45
solver = Alternate
Matrix Compiler1: 5.23 KB object code size  0.9/0.6/[0.4]
Matrix Compiler2: 4.99 KB object code size  0.5/0.6/[0.3]

