Circuit: * C:\Users\emanu\Desktop\DCE-GRUPO10\REALIMENTADOR\LTSpice\Test2.asc

Direct Newton iteration for .op point succeeded.

Date: Thu Mar 19 14:34:04 2020
Total elapsed time: 0.702 seconds.

tnom = 27
temp = 27
method = trap
totiter = 9
traniter = 0
tranpoints = 0
accept = 0
rejected = 0
matrix size = 64
fillins = 98
solver = Alternate
Matrix Compiler1:     435 opcodes
Matrix Compiler2: 8.04 KB object code size
