Circuit: * C:\Users\emanu\Desktop\DCE-GRUPO10\REALIMENTADOR\LTSpice\Test.asc

WARNING: Less than two connections to node VCC.  This node is used by VCC.
WARNING: Less than two connections to node VEE.  This node is used by VSS.
WARNING: Less than two connections to node 5V.  This node is used by V1.
WARNING: Less than two connections to node VSIN.  This node is used by V§SENOIDAL.
WARNING: Less than two connections to node -5V.  This node is used by V2.
WARNING: Less than two connections to node 15V.  This node is used by V5.
WARNING: Less than two connections to node -15V.  This node is used by V6.
Per .tran options, skipping operating point for transient analysis.

Date: Sun Mar 15 18:48:34 2020
Total elapsed time: 0.165 seconds.

tnom = 27
temp = 27
method = modified trap
totiter = 2082
traniter = 2082
tranpoints = 1042
accept = 1042
rejected = 0
matrix size = 14
fillins = 0
solver = Alternate
Matrix Compiler1: 212 bytes object code size  0.1/0.1/[0.0]
Matrix Compiler2: 606 bytes object code size  0.1/0.1/[0.1]

