Circuit: * C:\Users\Ema\Desktop\DCE\DISTORSION\Distorsion_1k_1W.asc

Questionable use of curly braces in "b§e_abmgate yint 0 v={if(v(a)>{{vthresh}},{{vss}},{{vdd}})}"
    Error: undefined symbol in: "if([v](a)>((vthresh)),((vss)),((vdd)))"
Questionable use of curly braces in "b§e_abmgate yint 0 v={if(v(a)>{{vthresh}}&v(b)>{{vthresh}},{{vdd}},{{vss}})}"
    Error: undefined symbol in: "if([v](a)>((vthresh))&v(b)>((vthresh)),((vdd)),((vss)))"
Questionable use of curly braces in "b§e_abmgate yint 0 v={if(v(a)>{{vthresh}}&v(b)>{{vthresh}},{{vdd}},{{vss}})}"
    Error: undefined symbol in: "if([v](a)>((vthresh))&v(b)>((vthresh)),((vdd)),((vss)))"
Questionable use of curly braces in "b§e_abmgate yint 0 v={if(v(a)>{{vthresh}},{{vss}},{{vdd}})}"
    Error: undefined symbol in: "if([v](a)>((vthresh)),((vss)),((vdd)))"
Questionable use of curly braces in "b§e_abmgate yint 0 v={if(v(a)>{{vthresh}}&v(b)>{{vthresh}},{{vdd}},{{vss}})}"
    Error: undefined symbol in: "if([v](a)>((vthresh))&v(b)>((vthresh)),((vdd)),((vss)))"
Questionable use of curly braces in "b§e_abmgate yint 0 v={if(v(a)>{{vthresh}},{{vss}},{{vdd}})}"
    Error: undefined symbol in: "if([v](a)>((vthresh)),((vss)),((vdd)))"
WARNING: Less than two connections to node NC_03.  This node is used by V:U4:_V11.
WARNING: Less than two connections to node NC_02.  This node is used by V:U4:_V12.
WARNING: Less than two connections to node NC_01.  This node is used by V:U4:_V13.
WARNING: Less than two connections to node NC_04.  This node is used by V:U4:_V14.
WARNING: Less than two connections to node -15V.  This node is used by V6.
Instance "m:u4:_m12:1": Length shorter than recommended for a level 1 MOSFET.
Instance "m:u4:_m14:1": Length shorter than recommended for a level 1 MOSFET.
Instance "m:u4:_m15:1": Length shorter than recommended for a level 1 MOSFET.
Instance "m:u4:_m13:1": Length shorter than recommended for a level 1 MOSFET.
Instance "m:m2:2": Length shorter than recommended for a level 3 MOSFET.
Instance "m:m2:1": Length shorter than recommended for a level 3 MOSFET.
Instance "m:m1:2": Length shorter than recommended for a level 3 MOSFET.
Instance "m:m1:1": Length shorter than recommended for a level 3 MOSFET.
Per .tran options, skipping operating point for transient analysis.
Ignoring empty pin current: Ix(u4:vcci_1)
Changing Tseed to 4.88281e-010
Changing Tseed to 4.88281e-012
Changing Tseed to 4.88281e-009
Changing Tseed to 4.88281e-013
Changing Tseed to 4.88281e-008
Changing Tseed to 4.88281e-014
Changing Tseed to 4.88281e-007
Changing Tseed to 4.88281e-015
Changing Tseed to 4.88281e-006
Changing Tseed to 4.88281e-016
Changing Tseed to 4.88281e-005
Changing Tseed to 4.88281e-017
Heightened Def Con from 0 Changing Tseed to 1e-009
Changing Tseed to 1e-011
Changing Tseed to 1e-008
Changing Tseed to 1e-012
Changing Tseed to 1e-007
Changing Tseed to 1e-013
Changing Tseed to 1e-006
Changing Tseed to 1e-014
Changing Tseed to 1e-005
Changing Tseed to 1e-015
Changing Tseed to 0.0001
Changing Tseed to 1e-016
+Changing Tseed to 1e-009
Changing Tseed to 1e-011
Changing Tseed to 1e-008
Changing Tseed to 1e-012
Changing Tseed to 1e-007
Changing Tseed to 1e-013
Changing Tseed to 1e-006
Changing Tseed to 1e-014
Changing Tseed to 1e-005
Changing Tseed to 1e-015
Changing Tseed to 0.0001
Changing Tseed to 1e-016
+Changing Tseed to 1e-009
Changing Tseed to 1e-011
Changing Tseed to 1e-008
Changing Tseed to 1e-012
Changing Tseed to 1e-007
Changing Tseed to 1e-013
Changing Tseed to 1e-006
Changing Tseed to 1e-014
Changing Tseed to 1e-005
Changing Tseed to 1e-015
Changing Tseed to 0.0001
Changing Tseed to 1e-016
+Changing Tseed to 1e-009
Changing Tseed to 1e-011
Changing Tseed to 1e-008
Changing Tseed to 1e-012
Changing Tseed to 1e-007
Changing Tseed to 1e-013
Changing Tseed to 1e-006
Changing Tseed to 1e-014
Changing Tseed to 1e-005
Changing Tseed to 1e-015
Changing Tseed to 0.0001
Changing Tseed to 1e-016
+Changing Tseed to 1e-009
Changing Tseed to 1e-011
Changing Tseed to 1e-008
Changing Tseed to 1e-012
Changing Tseed to 1e-007
Changing Tseed to 1e-013
Changing Tseed to 1e-006
Changing Tseed to 1e-014
Changing Tseed to 1e-005
Changing Tseed to 1e-015
Changing Tseed to 0.0001
Changing Tseed to 1e-016
+Changing Tseed to 1e-009
Changing Tseed to 1e-011
Changing Tseed to 1e-008
Changing Tseed to 1e-012
Changing Tseed to 1e-007
Changing Tseed to 1e-013
Changing Tseed to 1e-006
Changing Tseed to 1e-014
Changing Tseed to 1e-005
Changing Tseed to 1e-015
Changing Tseed to 0.0001
Changing Tseed to 1e-016
+Changing Tseed to 1e-009
Changing Tseed to 1e-011
Changing Tseed to 1e-008
Changing Tseed to 1e-012
Changing Tseed to 1e-007
Changing Tseed to 1e-013
Changing Tseed to 1e-006
Changing Tseed to 1e-014
Changing Tseed to 1e-005
Changing Tseed to 1e-015
Changing Tseed to 0.0001
Changing Tseed to 1e-016
+Changing Tseed to 1e-009
Changing Tseed to 1e-011
Changing Tseed to 1e-008
Changing Tseed to 1e-012
Changing Tseed to 1e-007
Changing Tseed to 1e-013
Changing Tseed to 1e-006
Changing Tseed to 1e-014
Changing Tseed to 1e-005
Changing Tseed to 1e-015
Changing Tseed to 0.0001
Changing Tseed to 1e-016
+Changing Tseed to 1e-009
Changing Tseed to 1e-011
Changing Tseed to 1e-008
Changing Tseed to 1e-012
Changing Tseed to 1e-007
Changing Tseed to 1e-013
Changing Tseed to 1e-006
Changing Tseed to 1e-014
Changing Tseed to 1e-005
Changing Tseed to 1e-015
Changing Tseed to 0.0001
Changing Tseed to 1e-016
+Changing Tseed to 1e-009
Changing Tseed to 1e-011
Changing Tseed to 1e-008
Changing Tseed to 1e-012
Changing Tseed to 1e-007
Changing Tseed to 1e-013
Changing Tseed to 1e-006
Changing Tseed to 1e-014
Changing Tseed to 1e-005
Changing Tseed to 1e-015
Changing Tseed to 0.0001
Changing Tseed to 1e-016
+Changing Tseed to 1e-009
Changing Tseed to 1e-011
Changing Tseed to 1e-008
Changing Tseed to 1e-012
Changing Tseed to 1e-007
Changing Tseed to 1e-013
Changing Tseed to 1e-006
Changing Tseed to 1e-014
Changing Tseed to 1e-005
Changing Tseed to 1e-015
Changing Tseed to 0.0001
Changing Tseed to 1e-016
+Changing Tseed to 1e-009
Changing Tseed to 1e-011
Changing Tseed to 1e-008
Changing Tseed to 1e-012
Changing Tseed to 1e-007
Changing Tseed to 1e-013
Changing Tseed to 1e-006
Changing Tseed to 1e-014
Changing Tseed to 1e-005
Changing Tseed to 1e-015
Changing Tseed to 0.0001
Changing Tseed to 1e-016
+Changing Tseed to 1e-009
Changing Tseed to 1e-011
Changing Tseed to 1e-008
Changing Tseed to 1e-012
Changing Tseed to 1e-007
Changing Tseed to 1e-013
Changing Tseed to 1e-006
Changing Tseed to 1e-014
Changing Tseed to 1e-005
Changing Tseed to 1e-015
Changing Tseed to 0.0001
Changing Tseed to 1e-016
+Changing Tseed to 1e-009
Changing Tseed to 1e-011
Changing Tseed to 1e-008
Changing Tseed to 1e-012
Changing Tseed to 1e-007
Changing Tseed to 1e-013
Changing Tseed to 1e-006
Changing Tseed to 1e-014
Changing Tseed to 1e-005
Changing Tseed to 1e-015
Changing Tseed to 0.0001
Changing Tseed to 1e-016
+Changing Tseed to 1e-009
Changing Tseed to 1e-011
Changing Tseed to 1e-008
Changing Tseed to 1e-012
Changing Tseed to 1e-007
Changing Tseed to 1e-013
Changing Tseed to 1e-006
Changing Tseed to 1e-014
Changing Tseed to 1e-005
Changing Tseed to 1e-015
Changing Tseed to 0.0001
Changing Tseed to 1e-016
+Changing Tseed to 1e-009
Changing Tseed to 1e-011
Changing Tseed to 1e-008
Changing Tseed to 1e-012
Changing Tseed to 1e-007
Changing Tseed to 1e-013
Changing Tseed to 1e-006
Changing Tseed to 1e-014
Changing Tseed to 1e-005
Changing Tseed to 1e-015
Changing Tseed to 0.0001
Changing Tseed to 1e-016
+Changing Tseed to 1e-009
Changing Tseed to 1e-011
Changing Tseed to 1e-008
Changing Tseed to 1e-012
Changing Tseed to 1e-007
Changing Tseed to 1e-013
Changing Tseed to 1e-006
Changing Tseed to 1e-014
Changing Tseed to 1e-005
Changing Tseed to 1e-015
Changing Tseed to 0.0001
Changing Tseed to 1e-016
+Changing Tseed to 1e-009
Changing Tseed to 1e-011
Changing Tseed to 1e-008
Changing Tseed to 1e-012
Changing Tseed to 1e-007
Changing Tseed to 1e-013
Changing Tseed to 1e-006
Changing Tseed to 1e-014
Changing Tseed to 1e-005
Changing Tseed to 1e-015
Changing Tseed to 0.0001
Changing Tseed to 1e-016
+Changing Tseed to 1e-009
Changing Tseed to 1e-011
Changing Tseed to 1e-008
Changing Tseed to 1e-012
Changing Tseed to 1e-007
Changing Tseed to 1e-013
Changing Tseed to 1e-006
Changing Tseed to 1e-014
Changing Tseed to 1e-005
Changing Tseed to 1e-015
Changing Tseed to 0.0001
Changing Tseed to 1e-016
+Changing Tseed to 1e-009
Changing Tseed to 1e-011
Changing Tseed to 1e-008
Changing Tseed to 1e-012
Changing Tseed to 1e-007
Changing Tseed to 1e-013
Changing Tseed to 1e-006
Changing Tseed to 1e-014
Changing Tseed to 1e-005
Changing Tseed to 1e-015
Changing Tseed to 0.0001
Changing Tseed to 1e-016
+Changing Tseed to 1e-009
Changing Tseed to 1e-011
Changing Tseed to 1e-008
Changing Tseed to 1e-012
Changing Tseed to 1e-007
Changing Tseed to 1e-013
Changing Tseed to 1e-006
Changing Tseed to 1e-014
Changing Tseed to 1e-005
Changing Tseed to 1e-015
Changing Tseed to 0.0001
Changing Tseed to 1e-016
+Changing Tseed to 1e-009
Changing Tseed to 1e-011
Changing Tseed to 1e-008
Changing Tseed to 1e-012
Changing Tseed to 1e-007
Changing Tseed to 1e-013
Changing Tseed to 1e-006
Changing Tseed to 1e-014
Changing Tseed to 1e-005
Changing Tseed to 1e-015
Changing Tseed to 0.0001
Changing Tseed to 1e-016
+Changing Tseed to 1e-009
Changing Tseed to 1e-011
Changing Tseed to 1e-008
Changing Tseed to 1e-012
Changing Tseed to 1e-007
Changing Tseed to 1e-013
Changing Tseed to 1e-006
Changing Tseed to 1e-014
Changing Tseed to 1e-005
Changing Tseed to 1e-015
Changing Tseed to 0.0001
Changing Tseed to 1e-016
+Changing Tseed to 1e-009
Changing Tseed to 1e-011
Changing Tseed to 1e-008
Changing Tseed to 1e-012
Changing Tseed to 1e-007
Changing Tseed to 1e-013
Changing Tseed to 1e-006
Changing Tseed to 1e-014
Changing Tseed to 1e-005
Changing Tseed to 1e-015
Changing Tseed to 0.0001
Changing Tseed to 1e-016
+Changing Tseed to 1e-009
Changing Tseed to 1e-011
Changing Tseed to 1e-008
Changing Tseed to 1e-012
Changing Tseed to 1e-007
Changing Tseed to 1e-013
Changing Tseed to 1e-006
Changing Tseed to 1e-014
Changing Tseed to 1e-005
Changing Tseed to 1e-015
Changing Tseed to 0.0001
Changing Tseed to 1e-016
+Changing Tseed to 1e-009
Changing Tseed to 1e-011
Changing Tseed to 1e-008
Changing Tseed to 1e-012
Changing Tseed to 1e-007
Changing Tseed to 1e-013
Changing Tseed to 1e-006
Changing Tseed to 1e-014
Changing Tseed to 1e-005
Changing Tseed to 1e-015
Changing Tseed to 0.0001
Changing Tseed to 1e-016
+Changing Tseed to 1e-009
Changing Tseed to 1e-011
Changing Tseed to 1e-008
Changing Tseed to 1e-012
Changing Tseed to 1e-007
Changing Tseed to 1e-013
Changing Tseed to 1e-006
Changing Tseed to 1e-014
Changing Tseed to 1e-005
Changing Tseed to 1e-015
Changing Tseed to 0.0001
Changing Tseed to 1e-016
+Changing Tseed to 1e-009
Changing Tseed to 1e-011
Changing Tseed to 1e-008
Changing Tseed to 1e-012
Changing Tseed to 1e-007
Changing Tseed to 1e-013
Changing Tseed to 1e-006
Changing Tseed to 1e-014
Changing Tseed to 1e-005
Changing Tseed to 1e-015
Changing Tseed to 0.0001
Changing Tseed to 1e-016
+Changing Tseed to 1e-009
Changing Tseed to 1e-011
Changing Tseed to 1e-008
Changing Tseed to 1e-012
Changing Tseed to 1e-007
Changing Tseed to 1e-013
Changing Tseed to 1e-006
Changing Tseed to 1e-014
Changing Tseed to 1e-005
Changing Tseed to 1e-015
Changing Tseed to 0.0001
Changing Tseed to 1e-016
+Changing Tseed to 1e-009
Changing Tseed to 1e-011
Changing Tseed to 1e-008
Changing Tseed to 1e-012
Changing Tseed to 1e-007
Changing Tseed to 1e-013
Changing Tseed to 1e-006
Changing Tseed to 1e-014
Changing Tseed to 1e-005
Changing Tseed to 1e-015
Changing Tseed to 0.0001
Changing Tseed to 1e-016
+Changing Tseed to 1e-009
Changing Tseed to 1e-011
Changing Tseed to 1e-008
Changing Tseed to 1e-012
Changing Tseed to 1e-007
Changing Tseed to 1e-013
Changing Tseed to 1e-006
Changing Tseed to 1e-014
Changing Tseed to 1e-005
Changing Tseed to 1e-015
Changing Tseed to 0.0001
Changing Tseed to 1e-016
+Changing Tseed to 1e-009
Changing Tseed to 1e-011
Changing Tseed to 1e-008
Changing Tseed to 1e-012
Changing Tseed to 1e-007
Changing Tseed to 1e-013
Changing Tseed to 1e-006
Changing Tseed to 1e-014
Changing Tseed to 1e-005
Changing Tseed to 1e-015
Changing Tseed to 0.0001
Changing Tseed to 1e-016
+Changing Tseed to 1e-009
Changing Tseed to 1e-011
Changing Tseed to 1e-008
Changing Tseed to 1e-012
Changing Tseed to 1e-007
Changing Tseed to 1e-013
Changing Tseed to 1e-006
Changing Tseed to 1e-014
Changing Tseed to 1e-005
Changing Tseed to 1e-015
Changing Tseed to 0.0001
Changing Tseed to 1e-016
+Changing Tseed to 1e-009
Changing Tseed to 1e-011
Changing Tseed to 1e-008
Changing Tseed to 1e-012
Changing Tseed to 1e-007
Changing Tseed to 1e-013
Changing Tseed to 1e-006
Changing Tseed to 1e-014
Changing Tseed to 1e-005
Changing Tseed to 1e-015
Changing Tseed to 0.0001
Changing Tseed to 1e-016
+Changing Tseed to 1e-009
Changing Tseed to 1e-011
Changing Tseed to 1e-008
Changing Tseed to 1e-012
Changing Tseed to 1e-007
Changing Tseed to 1e-013
Changing Tseed to 1e-006
Changing Tseed to 1e-014
Changing Tseed to 1e-005
Changing Tseed to 1e-015
Changing Tseed to 0.0001
Changing Tseed to 1e-016
+Changing Tseed to 1e-009
Changing Tseed to 1e-011
to 1.125e-011
Heightened Def Con from 1.125e-011 +++++++++++++++++++++++++++to 2.26125e-009
Heightened Def Con from 2.26125e-009 +++++++++++++++++++to 2.26394e-009
Heightened Def Con from 2.26394e-009 +++++++++++++++to 2.26398e-009
Heightened Def Con from 1.91525e-008 to 2.01681e-008
Heightened Def Con from 4.99822e-005 to 4.99832e-005
Heightened Def Con from 5.48866e-005 to 5.48867e-005
Heightened Def Con from 5.98239e-005 to 5.9824e-005
Heightened Def Con from 6.22098e-005 to 6.22228e-005
Heightened Def Con from 6.476e-005 to 6.47601e-005
Heightened Def Con from 6.71374e-005 to 6.71525e-005
Heightened Def Con from 6.96973e-005 to 6.96974e-005
Heightened Def Con from 7.46342e-005 to 7.46343e-005
Heightened Def Con from 7.95711e-005 to 7.95712e-005
Heightened Def Con from 8.45074e-005 to 8.45076e-005
Heightened Def Con from 8.68429e-005 to 8.68529e-005
Heightened Def Con from 8.94439e-005 to 8.9444e-005
Heightened Def Con from 9.43798e-005 to 9.43799e-005
Heightened Def Con from 9.93166e-005 to 9.93168e-005
Heightened Def Con from 0.000104254 to 0.000104254
Heightened Def Con from 0.00010919 to 0.00010919
Heightened Def Con from 0.000114126 to 0.000114126
Heightened Def Con from 0.000119061 to 0.000119062
Heightened Def Con from 0.000123998 to 0.000123998
Heightened Def Con from 0.000128933 to 0.000128933
Heightened Def Con from 0.000131366 to 0.000131367
Heightened Def Con from 0.000133869 to 0.000133869
Heightened Def Con from 0.000133869 to 0.000133869
Heightened Def Con from 0.000136123 to 0.000136123
Heightened Def Con from 0.000138805 to 0.000138805
Heightened Def Con from 0.000141048 to 0.000141048
Heightened Def Con from 0.000143737 to 0.000143738
Heightened Def Con from 0.00014374 to 0.00014374
Heightened Def Con from 0.000145978 to 0.000145978
Heightened Def Con from 0.000148676 to 0.000148676
Heightened Def Con from 0.00015091 to 0.00015091
Heightened Def Con from 0.000153608 to 0.000153609
Heightened Def Con from 0.00015361 to 0.00015361
Heightened Def Con from 0.000155835 to 0.000155835
Heightened Def Con from 0.000158545 to 0.000158546
Heightened Def Con from 0.000160767 to 0.000160767
Heightened Def Con from 0.000163479 to 0.00016348
Heightened Def Con from 0.000163481 to 0.000163481
Heightened Def Con from 0.000165696 to 0.000165696
Heightened Def Con from 0.000168413 to 0.000168414
Heightened Def Con from 0.000168415 to 0.000168415
Heightened Def Con from 0.000170625 to 0.000170625
Heightened Def Con from 0.00017335 to 0.00017335
Heightened Def Con from 0.000175554 to 0.000175555
Heightened Def Con from 0.000178283 to 0.000178284
Heightened Def Con from 0.000178285 to 0.000178285
Heightened Def Con from 0.000180488 to 0.000180488
Heightened Def Con from 0.000183219 to 0.000183219
Heightened Def Con from 0.000185414 to 0.000185414
Heightened Def Con from 0.000188153 to 0.000188153
Heightened Def Con from 0.000190343 to 0.000190343
Heightened Def Con from 0.000193085 to 0.000193086
Heightened Def Con from 0.000193088 to 0.000193088
Heightened Def Con from 0.000195277 to 0.000195278
Heightened Def Con from 0.000198021 to 0.000198021
Heightened Def Con from 0.000200204 to 0.000200204
Heightened Def Con from 0.000202956 to 0.000202956
Heightened Def Con from 0.000205138 to 0.000205138
Heightened Def Con from 0.000207888 to 0.000207889
Heightened Def Con from 0.00020789 to 0.00020789
Heightened Def Con from 0.000210071 to 0.000210071
Heightened Def Con from 0.000212824 to 0.000212824
Heightened Def Con from 0.000214999 to 0.000215
Heightened Def Con from 0.000217757 to 0.000217758
Heightened Def Con from 0.00021993 to 0.00021993
Heightened Def Con from 0.000222689 to 0.00022269
Heightened Def Con from 0.000222691 to 0.000222691
Heightened Def Con from 0.000224858 to 0.000224859
Heightened Def Con from 0.000227621 to 0.000227622
Heightened Def Con from 0.000227623 to 0.000227624
Heightened Def Con from 0.000229794 to 0.000229794
Heightened Def Con from 0.000232554 to 0.000232555
Heightened Def Con from 0.000232556 to 0.000232556
Heightened Def Con from 0.000234725 to 0.000234725
Heightened Def Con from 0.000237487 to 0.000237488
Heightened Def Con from 0.00023749 to 0.00023749
Heightened Def Con from 0.000239655 to 0.000239655
Heightened Def Con from 0.000242423 to 0.000242423
Heightened Def Con from 0.000244594 to 0.000244594
Heightened Def Con from 0.000247356 to 0.000247357
Heightened Def Con from 0.000249525 to 0.000249525
Heightened Def Con from 0.000252288 to 0.000252288
Heightened Def Con from 0.000254456 to 0.000254456
Heightened Def Con from 0.000257221 to 0.000257221
Heightened Def Con from 0.000259388 to 0.000259388
Heightened Def Con from 0.00026215 to 0.000262151
Heightened Def Con from 0.000262153 to 0.000262153
Heightened Def Con from 0.000264318 to 0.000264318
Heightened Def Con from 0.000267082 to 0.000267083
Heightened Def Con from 0.000267085 to 0.000267085
Heightened Def Con from 0.000269252 to 0.000269252
Heightened Def Con from 0.000272015 to 0.000272016
Heightened Def Con from 0.000272017 to 0.000272017
Heightened Def Con from 0.000274188 to 0.000274188
Heightened Def Con from 0.000276946 to 0.000276947
Heightened Def Con from 0.000276948 to 0.000276948
Heightened Def Con from 0.000279119 to 0.000279119
Heightened Def Con from 0.000281878 to 0.000281879
Heightened Def Con from 0.00028188 to 0.00028188
Heightened Def Con from 0.000284051 to 0.000284051
Heightened Def Con from 0.000286809 to 0.00028681
Heightened Def Con from 0.000286811 to 0.000286811
Heightened Def Con from 0.000288987 to 0.000288987
Heightened Def Con from 0.000291742 to 0.000291742
Heightened Def Con from 0.000293922 to 0.000293922
Heightened Def Con from 0.000296674 to 0.000296675
Heightened Def Con from 0.000298859 to 0.000298859
Heightened Def Con from 0.000301602 to 0.000301603
Heightened Def Con from 0.000303787 to 0.000303787
Heightened Def Con from 0.000306536 to 0.000306536
Heightened Def Con from 0.00030872 to 0.00030872
Heightened Def Con from 0.000311464 to 0.000311465
Heightened Def Con from 0.000311466 to 0.000311466
Heightened Def Con from 0.000313653 to 0.000313653
Heightened Def Con from 0.000316394 to 0.000316395
Heightened Def Con from 0.000316397 to 0.000316397
Heightened Def Con from 0.000318591 to 0.000318592
Heightened Def Con from 0.000321327 to 0.000321327
Heightened Def Con from 0.000323526 to 0.000323526
Heightened Def Con from 0.000326255 to 0.000326256
Heightened Def Con from 0.000326257 to 0.000326257
Heightened Def Con from 0.00032846 to 0.00032846
Heightened Def Con from 0.000331187 to 0.000331188
Heightened Def Con from 0.000333396 to 0.000333397
Heightened Def Con from 0.000336118 to 0.000336118
Heightened Def Con from 0.000338332 to 0.000338332
Heightened Def Con from 0.000341044 to 0.000341045
Heightened Def Con from 0.000341046 to 0.000341046
Heightened Def Con from 0.000343266 to 0.000343266
Heightened Def Con from 0.000345977 to 0.000345977
Heightened Def Con from 0.000348204 to 0.000348204
Heightened Def Con from 0.000348209 to 0.000348227
Heightened Def Con from 0.000350905 to 0.000350906
Heightened Def Con from 0.000350907 to 0.000350907
Heightened Def Con from 0.000353138 to 0.000353139
Heightened Def Con from 0.000353143 to 0.00035316
Heightened Def Con from 0.000355834 to 0.000355835
Heightened Def Con from 0.000355836 to 0.000355836
Heightened Def Con from 0.000358075 to 0.000358075
Heightened Def Con from 0.000360763 to 0.000360764
Heightened Def Con from 0.000360765 to 0.000360765
Heightened Def Con from 0.000363006 to 0.000363006
Heightened Def Con from 0.00036301 to 0.000363028
Heightened Def Con from 0.000365692 to 0.000365693
Heightened Def Con from 0.000365694 to 0.000365694
Heightened Def Con from 0.000367944 to 0.000367945
Heightened Def Con from 0.000367949 to 0.000367966
Heightened Def Con from 0.000370621 to 0.000370622
Heightened Def Con from 0.000370623 to 0.000370623
Heightened Def Con from 0.000372881 to 0.000372881
Heightened Def Con from 0.000375553 to 0.000375553
Heightened Def Con from 0.000377815 to 0.000377815
Heightened Def Con from 0.00038048 to 0.000380481
Heightened Def Con from 0.000380481 to 0.000380481
Heightened Def Con from 0.000382756 to 0.000382756
Heightened Def Con from 0.00038541 to 0.00038541
Heightened Def Con from 0.000387688 to 0.000387688
Heightened Def Con from 0.000390337 to 0.000390337
Heightened Def Con from 0.000390339 to 0.000390339
Heightened Def Con from 0.000392626 to 0.000392626
Heightened Def Con from 0.000395265 to 0.000395266
Heightened Def Con from 0.000395267 to 0.000395267
Heightened Def Con from 0.000397565 to 0.000397565
Heightened Def Con from 0.000400197 to 0.000400197
Heightened Def Con from 0.000402497 to 0.000402497
Heightened Def Con from 0.000402501 to 0.000402519
Heightened Def Con from 0.000405125 to 0.000405125
Heightened Def Con from 0.000407437 to 0.000407437
Heightened Def Con from 0.000410053 to 0.000410053
Heightened Def Con from 0.000412375 to 0.000412375
Heightened Def Con from 0.000414981 to 0.000414981
Heightened Def Con from 0.000417311 to 0.000417312
Heightened Def Con from 0.000417315 to 0.000417334
Heightened Def Con from 0.000419908 to 0.000419908
Heightened Def Con from 0.00041991 to 0.00041991
Heightened Def Con from 0.000422244 to 0.000422245
Heightened Def Con from 0.000424836 to 0.000424836
Heightened Def Con from 0.000424837 to 0.000424837
Heightened Def Con from 0.000427185 to 0.000427185
Heightened Def Con from 0.000427187 to 0.000427206
Heightened Def Con from 0.000429765 to 0.000429765
Heightened Def Con from 0.000429766 to 0.000429766
Heightened Def Con from 0.000432119 to 0.000432119
Heightened Def Con from 0.000434694 to 0.000434694
Heightened Def Con from 0.000434695 to 0.000434695
Heightened Def Con from 0.000437057 to 0.000437057
Heightened Def Con from 0.000439622 to 0.000439622
Heightened Def Con from 0.000442001 to 0.000442001
Heightened Def Con from 0.000442004 to 0.000442023
Heightened Def Con from 0.00044455 to 0.00044455
Heightened Def Con from 0.000446936 to 0.000446936
Heightened Def Con from 0.000446938 to 0.000446957
Heightened Def Con from 0.000449479 to 0.000449479
Heightened Def Con from 0.00045187 to 0.00045187
Heightened Def Con from 0.000451872 to 0.000451892
Heightened Def Con from 0.000454406 to 0.000454406
Heightened Def Con from 0.000454406 to 0.000454406
Heightened Def Con from 0.000456811 to 0.000456812
Heightened Def Con from 0.000456814 to 0.000456833
Heightened Def Con from 0.000459333 to 0.000459334
Heightened Def Con from 0.000459334 to 0.000459334
Heightened Def Con from 0.000461749 to 0.000461749
Heightened Def Con from 0.000461751 to 0.000461771
Heightened Def Con from 0.00046426 to 0.00046426
Heightened Def Con from 0.000464261 to 0.000464261
Heightened Def Con from 0.000466686 to 0.000466686
Heightened Def Con from 0.000469188 to 0.000469188
Heightened Def Con from 0.000469189 to 0.000469189
Heightened Def Con from 0.000471624 to 0.000471624
Heightened Def Con from 0.000474116 to 0.000474116
Heightened Def Con from 0.000474117 to 0.000474117
Heightened Def Con from 0.00047656 to 0.000476561
Heightened Def Con from 0.000479044 to 0.000479044
Heightened Def Con from 0.000479044 to 0.000479044
Heightened Def Con from 0.000481499 to 0.000481499
Heightened Def Con from 0.000483973 to 0.000483973
Heightened Def Con from 0.000486439 to 0.000486439
Heightened Def Con from 0.00048644 to 0.00048646
Heightened Def Con from 0.0004889 to 0.0004889
Heightened Def Con from 0.000488901 to 0.000488923
Heightened Def Con from 0.000491375 to 0.000491375
Heightened Def Con from 0.000493827 to 0.000493828
Heightened Def Con from 0.000493828 to 0.00049385
Heightened Def Con from 0.000496315 to 0.000496315
Heightened Def Con from 0.000496316 to 0.000496337
Heightened Def Con from 0.000498755 to 0.000498755
Heightened Def Con from 0.000498756 to 0.000498778
Heightened Def Con from 0.000501249 to 0.000501249
Heightened Def Con from 0.000503682 to 0.000503682
Heightened Def Con from 0.000503682 to 0.000503705
Heightened Def Con from 0.000506189 to 0.000506189
Heightened Def Con from 0.00050861 to 0.00050861
Heightened Def Con from 0.000508611 to 0.000508632
Heightened Def Con from 0.000511123 to 0.000511123
Heightened Def Con from 0.000511124 to 0.000511145
Heightened Def Con from 0.000513538 to 0.000513538
Heightened Def Con from 0.000513538 to 0.000513559
Heightened Def Con from 0.000516061 to 0.000516061
Heightened Def Con from 0.000516062 to 0.000516083
Heightened Def Con from 0.000518465 to 0.000518465
Heightened Def Con from 0.000518466 to 0.000518487
Heightened Def Con from 0.000520999 to 0.000520999
Heightened Def Con from 0.000521 to 0.000521021
Heightened Def Con from 0.000523393 to 0.000523393
Heightened Def Con from 0.000525941 to 0.000525942
Heightened Def Con from 0.000525942 to 0.000525963
Heightened Def Con from 0.00052832 to 0.00052832
Heightened Def Con from 0.000528321 to 0.000528342
Heightened Def Con from 0.000530878 to 0.000530878
Heightened Def Con from 0.000530879 to 0.0005309
Heightened Def Con from 0.000533249 to 0.000533249
Heightened Def Con from 0.000535818 to 0.000535818
Heightened Def Con from 0.000535819 to 0.000535841
Heightened Def Con from 0.000538176 to 0.000538176
Heightened Def Con from 0.000538177 to 0.000538198
Heightened Def Con from 0.000540749 to 0.00054075
Heightened Def Con from 0.00054075 to 0.000540771
Heightened Def Con from 0.000543105 to 0.000543105
Heightened Def Con from 0.000543106 to 0.000543127
Heightened Def Con from 0.000545693 to 0.000545693
Heightened Def Con from 0.000545694 to 0.000545715
Heightened Def Con from 0.000548032 to 0.000548033
Heightened Def Con from 0.000548034 to 0.000548054
Heightened Def Con from 0.000550632 to 0.000550632
Heightened Def Con from 0.000550632 to 0.000550653
Heightened Def Con from 0.000552959 to 0.000552959
Heightened Def Con from 0.000552961 to 0.000552981
Heightened Def Con from 0.000555565 to 0.000555565
Heightened Def Con from 0.000557887 to 0.000557887
Heightened Def Con from 0.000557889 to 0.000557909
Heightened Def Con from 0.0005605 to 0.0005605
Heightened Def Con from 0.000562815 to 0.000562815
Heightened Def Con from 0.000562817 to 0.000562837
Heightened Def Con from 0.000565443 to 0.000565444
Heightened Def Con from 0.000567744 to 0.000567744
Heightened Def Con from 0.000567746 to 0.000567766
Heightened Def Con from 0.000570379 to 0.000570379
Heightened Def Con from 0.000570379 to 0.000570379
Heightened Def Con from 0.000570379 to 0.000570401
Heightened Def Con from 0.000572672 to 0.000572672
Heightened Def Con from 0.000572674 to 0.000572694
Heightened Def Con from 0.000575313 to 0.000575313
Heightened Def Con from 0.0005776 to 0.0005776
Heightened Def Con from 0.000580249 to 0.000580249
Heightened Def Con from 0.000582527 to 0.000582528
Heightened Def Con from 0.00058253 to 0.00058255
Heightened Def Con from 0.000585188 to 0.000585188
Heightened Def Con from 0.000587456 to 0.000587456
Heightened Def Con from 0.00059013 to 0.00059013
Heightened Def Con from 0.00059013 to 0.000590131
Heightened Def Con from 0.000592385 to 0.000592385
Heightened Def Con from 0.000595066 to 0.000595066
Heightened Def Con from 0.000595066 to 0.000595066
Heightened Def Con from 0.000597314 to 0.000597314
Heightened Def Con from 0.000597317 to 0.000597336
Heightened Def Con from 0.000599999 to 0.000599999
Heightened Def Con from 0.000599999 to 0.000599999
Heightened Def Con from 0.000602242 to 0.000602242
Heightened Def Con from 0.000602245 to 0.000602264
Heightened Def Con from 0.00060494 to 0.00060494
Heightened Def Con from 0.000607171 to 0.000607171
Heightened Def Con from 0.000607173 to 0.000607192
Heightened Def Con from 0.000609874 to 0.000609874
Heightened Def Con from 0.000609875 to 0.000609875
Heightened Def Con from 0.0006121 to 0.0006121
Heightened Def Con from 0.000612102 to 0.000612121
Heightened Def Con from 0.000614809 to 0.000614809
Heightened Def Con from 0.000614809 to 0.000614809
Heightened Def Con from 0.000617029 to 0.000617029
Heightened Def Con from 0.000617031 to 0.00061705
Heightened Def Con from 0.000619746 to 0.000619746
Heightened Def Con from 0.000621957 to 0.000621958
Heightened Def Con from 0.00062196 to 0.000621979
Heightened Def Con from 0.000624686 to 0.000624686
Heightened Def Con from 0.000626886 to 0.000626886
Heightened Def Con from 0.000629621 to 0.000629621
Heightened Def Con from 0.000631815 to 0.000631815
Heightened Def Con from 0.000634553 to 0.000634553
Heightened Def Con from 0.000634554 to 0.000634554
Heightened Def Con from 0.000636744 to 0.000636744
Heightened Def Con from 0.000636747 to 0.000636766
Heightened Def Con from 0.000639494 to 0.000639494
Heightened Def Con from 0.000641673 to 0.000641673
Heightened Def Con from 0.000644426 to 0.000644426
Heightened Def Con from 0.000644427 to 0.000644427
Heightened Def Con from 0.000646603 to 0.000646603
Heightened Def Con from 0.000646606 to 0.000646624
Heightened Def Con from 0.000649363 to 0.000649363
Heightened Def Con from 0.000649364 to 0.000649364
Heightened Def Con from 0.000651532 to 0.000651532
Heightened Def Con from 0.000654298 to 0.000654298
Heightened Def Con from 0.000654299 to 0.000654299
Heightened Def Con from 0.000656462 to 0.000656462
Heightened Def Con from 0.000659231 to 0.000659231
Heightened Def Con from 0.000659232 to 0.000659232
Heightened Def Con from 0.000661391 to 0.000661391
Heightened Def Con from 0.000664168 to 0.000664168
Heightened Def Con from 0.000666321 to 0.000666321
Heightened Def Con from 0.000669103 to 0.000669103
Heightened Def Con from 0.000669104 to 0.000669105
Heightened Def Con from 0.000671251 to 0.000671251
Heightened Def Con from 0.00067404 to 0.00067404
Heightened Def Con from 0.000676182 to 0.000676182
Heightened Def Con from 0.000678972 to 0.000678972
Heightened Def Con from 0.000678974 to 0.000678974
Heightened Def Con from 0.000681111 to 0.000681111
Heightened Def Con from 0.000683908 to 0.000683908
Heightened Def Con from 0.000686042 to 0.000686042
Heightened Def Con from 0.000688844 to 0.000688844
Heightened Def Con from 0.000690972 to 0.000690972
Heightened Def Con from 0.000693777 to 0.000693777
Heightened Def Con from 0.000693779 to 0.000693779
Heightened Def Con from 0.000695904 to 0.000695904
Heightened Def Con from 0.000698708 to 0.000698708
Heightened Def Con from 0.000698709 to 0.000698709
Heightened Def Con from 0.000700835 to 0.000700835
Heightened Def Con from 0.000703648 to 0.000703648
Heightened Def Con from 0.000705766 to 0.000705766
Heightened Def Con from 0.000708576 to 0.000708576
Heightened Def Con from 0.000708578 to 0.000708578
Heightened Def Con from 0.000710696 to 0.000710696
Heightened Def Con from 0.000713515 to 0.000713515
Heightened Def Con from 0.000715628 to 0.000715628
Heightened Def Con from 0.000718449 to 0.000718449
Heightened Def Con from 0.000720558 to 0.000720559
Heightened Def Con from 0.000723379 to 0.000723379
Heightened Def Con from 0.00072338 to 0.00072338
Heightened Def Con from 0.000725491 to 0.000725491
Heightened Def Con from 0.000728312 to 0.000728312
Heightened Def Con from 0.000730422 to 0.000730423
Heightened Def Con from 0.000733247 to 0.000733247
Heightened Def Con from 0.000733248 to 0.000733248
Heightened Def Con from 0.000735355 to 0.000735355
Heightened Def Con from 0.000738181 to 0.000738203
Heightened Def Con from 0.000740286 to 0.000740287
Heightened Def Con from 0.000743114 to 0.000743114
Heightened Def Con from 0.000745218 to 0.000745218
Heightened Def Con from 0.000748041 to 0.000748041
Heightened Def Con from 0.000750151 to 0.000750152
Heightened Def Con from 0.000752975 to 0.000752975
Heightened Def Con from 0.000755083 to 0.000755083
Heightened Def Con from 0.000757905 to 0.000757905
Heightened Def Con from 0.000760016 to 0.000760016
Heightened Def Con from 0.000762841 to 0.000762841
Heightened Def Con from 0.000762842 to 0.000762842
Heightened Def Con from 0.000764949 to 0.000764949
Heightened Def Con from 0.000767772 to 0.000767772
Heightened Def Con from 0.000769882 to 0.000769882
Heightened Def Con from 0.000772704 to 0.000772704
Heightened Def Con from 0.000772706 to 0.000772706
Heightened Def Con from 0.000774816 to 0.000774816
Heightened Def Con from 0.000777635 to 0.000777635
Heightened Def Con from 0.000779749 to 0.000779749
Heightened Def Con from 0.000782567 to 0.000782568
Heightened Def Con from 0.000782569 to 0.000782569
Heightened Def Con from 0.000784682 to 0.000784682
Heightened Def Con from 0.000787498 to 0.000787498
Heightened Def Con from 0.000787499 to 0.000787499
Heightened Def Con from 0.000789615 to 0.000789615
Heightened Def Con from 0.000792428 to 0.000792428
Heightened Def Con from 0.000794549 to 0.000794549
Heightened Def Con from 0.00079736 to 0.00079736
Heightened Def Con from 0.000797361 to 0.000797361
Heightened Def Con from 0.000799483 to 0.000799483
Heightened Def Con from 0.000802287 to 0.000802287
Heightened Def Con from 0.000802289 to 0.000802289
Heightened Def Con from 0.000804417 to 0.000804417
Heightened Def Con from 0.00080722 to 0.00080722
Heightened Def Con from 0.000807222 to 0.000807222
Heightened Def Con from 0.000809351 to 0.000809351
Heightened Def Con from 0.000812152 to 0.000812152
Heightened Def Con from 0.000812153 to 0.000812153
Heightened Def Con from 0.000814285 to 0.000814285
Heightened Def Con from 0.000817077 to 0.000817077
Heightened Def Con from 0.000817079 to 0.000817079
Heightened Def Con from 0.00081922 to 0.00081922
Heightened Def Con from 0.000822013 to 0.000822013
Heightened Def Con from 0.000822014 to 0.000822014
Heightened Def Con from 0.000824153 to 0.000824153
Heightened Def Con from 0.000826941 to 0.000826941
Heightened Def Con from 0.000826942 to 0.000826942
Heightened Def Con from 0.000829087 to 0.000829087
Heightened Def Con from 0.000831868 to 0.000831868
Heightened Def Con from 0.000834023 to 0.000834023
Heightened Def Con from 0.000836801 to 0.000836801
Heightened Def Con from 0.000836803 to 0.000836803
Heightened Def Con from 0.000838958 to 0.000838958
Heightened Def Con from 0.00084173 to 0.000841731
Heightened Def Con from 0.000843892 to 0.000843893
Heightened Def Con from 0.000846658 to 0.000846658
Heightened Def Con from 0.000846659 to 0.000846659
Heightened Def Con from 0.000848828 to 0.000848828
Heightened Def Con from 0.000851592 to 0.000851592
Heightened Def Con from 0.000853763 to 0.000853763
Heightened Def Con from 0.000853767 to 0.000853785
Heightened Def Con from 0.000856518 to 0.000856519
Heightened Def Con from 0.00085652 to 0.00085652
Heightened Def Con from 0.000858698 to 0.000858698
Heightened Def Con from 0.000858701 to 0.000858719
Heightened Def Con from 0.000861443 to 0.000861443
Heightened Def Con from 0.000861444 to 0.000861444
Heightened Def Con from 0.000863634 to 0.000863656
Heightened Def Con from 0.000866377 to 0.000866377
Heightened Def Con from 0.000866378 to 0.000866378
Heightened Def Con from 0.00086857 to 0.00086857
Heightened Def Con from 0.000868573 to 0.000868592
Heightened Def Con from 0.000871302 to 0.000871302
Heightened Def Con from 0.000871303 to 0.000871303
Heightened Def Con from 0.000873506 to 0.000873507
Heightened Def Con from 0.000876233 to 0.000876233
Heightened Def Con from 0.000876234 to 0.000876234
Heightened Def Con from 0.000878441 to 0.000878441
Heightened Def Con from 0.000878444 to 0.000878463
Heightened Def Con from 0.000881164 to 0.000881165
Heightened Def Con from 0.000883377 to 0.000883377
Heightened Def Con from 0.000886092 to 0.000886092
Heightened Def Con from 0.000888313 to 0.000888313
Heightened Def Con from 0.000891014 to 0.000891014
Heightened Def Con from 0.000891014 to 0.000891015
Heightened Def Con from 0.000893249 to 0.000893249
Heightened Def Con from 0.000893252 to 0.000893271
Heightened Def Con from 0.000895945 to 0.000895945
Heightened Def Con from 0.000895946 to 0.000895946
Heightened Def Con from 0.000898185 to 0.000898185
Heightened Def Con from 0.000900874 to 0.000900874
Heightened Def Con from 0.000900875 to 0.000900875
Heightened Def Con from 0.000903122 to 0.000903122
Heightened Def Con from 0.000905798 to 0.000905798
Heightened Def Con from 0.000905798 to 0.000905798
Heightened Def Con from 0.000908058 to 0.000908058
Heightened Def Con from 0.000908061 to 0.00090808
Heightened Def Con from 0.000910729 to 0.000910729
Heightened Def Con from 0.00091073 to 0.00091073
Heightened Def Con from 0.000912995 to 0.000912995
Heightened Def Con from 0.000915653 to 0.000915653
Heightened Def Con from 0.000915653 to 0.000915653
Heightened Def Con from 0.000917931 to 0.000917931
Heightened Def Con from 0.000917933 to 0.000917953
Heightened Def Con from 0.00092058 to 0.00092058
Heightened Def Con from 0.00092058 to 0.00092058
Heightened Def Con from 0.000922868 to 0.000922868
Heightened Def Con from 0.000925511 to 0.000925511
Heightened Def Con from 0.000927803 to 0.000927804
Heightened Def Con from 0.000930442 to 0.000930442
Heightened Def Con from 0.000932741 to 0.000932741
Heightened Def Con from 0.000935368 to 0.000935368
Heightened Def Con from 0.000937678 to 0.000937678
Heightened Def Con from 0.000940295 to 0.000940295
Heightened Def Con from 0.000940295 to 0.000940317
Heightened Def Con from 0.000942614 to 0.000942614
Heightened Def Con from 0.000942616 to 0.000942636
Heightened Def Con from 0.000945222 to 0.000945222
Heightened Def Con from 0.000945222 to 0.000945244
Heightened Def Con from 0.000947551 to 0.000947551
Heightened Def Con from 0.000947552 to 0.000947573
Heightened Def Con from 0.000950148 to 0.000950148
Heightened Def Con from 0.000950148 to 0.00095017
Heightened Def Con from 0.000952489 to 0.000952489
Heightened Def Con from 0.000955071 to 0.000955071
Heightened Def Con from 0.000955071 to 0.000955092
Heightened Def Con from 0.000957426 to 0.000957426
Heightened Def Con from 0.000957427 to 0.000957448
Heightened Def Con from 0.000960004 to 0.000960004
Heightened Def Con from 0.000960005 to 0.000960026
Heightened Def Con from 0.000962363 to 0.000962363
Heightened Def Con from 0.000962364 to 0.000962385
Heightened Def Con from 0.000964927 to 0.000964927
Heightened Def Con from 0.000964927 to 0.000964948
Heightened Def Con from 0.0009673 to 0.0009673
Heightened Def Con from 0.000969853 to 0.000969854
Heightened Def Con from 0.000969854 to 0.000969875
Heightened Def Con from 0.000972237 to 0.000972237
Heightened Def Con from 0.000972238 to 0.000972259
Heightened Def Con from 0.000974782 to 0.000974782
Heightened Def Con from 0.000974783 to 0.000974804
Heightened Def Con from 0.000977175 to 0.000977175
Heightened Def Con from 0.000977175 to 0.000977196
Heightened Def Con from 0.00097971 to 0.00097971
Heightened Def Con from 0.000982112 to 0.000982112
Heightened Def Con from 0.000982112 to 0.000982134
Heightened Def Con from 0.000984638 to 0.000984638
Heightened Def Con from 0.000987048 to 0.000987048
Heightened Def Con from 0.000987049 to 0.00098707
Heightened Def Con from 0.000989564 to 0.000989564
Heightened Def Con from 0.000991986 to 0.000991986
Heightened Def Con from 0.000991986 to 0.000992007
Heightened Def Con from 0.000994493 to 0.000994493
Heightened Def Con from 0.000996923 to 0.000996923
Heightened Def Con from 0.000996924 to 0.000996945
Heightened Def Con from 0.000999417 to 0.000999417
Heightened Def Con from 0.000999418 to 0.000999439
Heightened Def Con from 0.00100186 to 0.00100186
Heightened Def Con from 0.00100434 to 0.00100434
Heightened Def Con from 0.0010068 to 0.0010068
Heightened Def Con from 0.0010068 to 0.00100682
Heightened Def Con from 0.00100927 to 0.00100927
Heightened Def Con from 0.00100927 to 0.00100929
Heightened Def Con from 0.00101173 to 0.00101173
Heightened Def Con from 0.0010142 to 0.0010142
Heightened Def Con from 0.00101667 to 0.00101667
Heightened Def Con from 0.00101667 to 0.00101669
Heightened Def Con from 0.00101912 to 0.00101912
Heightened Def Con from 0.00102161 to 0.00102161
Heightened Def Con from 0.00102161 to 0.00102161
Heightened Def Con from 0.00102405 to 0.00102405
Heightened Def Con from 0.00102655 to 0.00102655
Heightened Def Con from 0.00102655 to 0.00102655
Heightened Def Con from 0.00102898 to 0.00102898
Heightened Def Con from 0.00103148 to 0.00103148
Heightened Def Con from 0.00103148 to 0.00103148
Heightened Def Con from 0.0010339 to 0.0010339
Heightened Def Con from 0.00103642 to 0.00103642
Heightened Def Con from 0.00103642 to 0.00103642
Heightened Def Con from 0.00103883 to 0.00103883
Heightened Def Con from 0.00103884 to 0.00103886
Heightened Def Con from 0.00104136 to 0.00104136
Heightened Def Con from 0.00104136 to 0.00104136
Heightened Def Con from 0.00104376 to 0.00104376
Heightened Def Con from 0.00104629 to 0.00104629
Heightened Def Con from 0.00104868 to 0.00104868
Heightened Def Con from 0.00105123 to 0.00105123
Heightened Def Con from 0.00105123 to 0.00105123
Heightened Def Con from 0.00105361 to 0.00105361
Heightened Def Con from 0.00105362 to 0.00105363
Heightened Def Con from 0.00105617 to 0.00105617
Heightened Def Con from 0.00105617 to 0.00105617
Heightened Def Con from 0.00105617 to 0.00105617
Heightened Def Con from 0.00105854 to 0.00105854
Heightened Def Con from 0.0010611 to 0.0010611
Heightened Def Con from 0.0010611 to 0.0010611
Heightened Def Con from 0.0010611 to 0.0010611
Heightened Def Con from 0.00106347 to 0.00106347
Heightened Def Con from 0.00106347 to 0.00106349
Heightened Def Con from 0.00106604 to 0.00106604
Heightened Def Con from 0.0010684 to 0.0010684
Heightened Def Con from 0.0010684 to 0.00106842
Heightened Def Con from 0.00107098 to 0.00107098
Heightened Def Con from 0.00107098 to 0.00107098
Heightened Def Con from 0.00107332 to 0.00107332
Heightened Def Con from 0.00107591 to 0.00107592
Heightened Def Con from 0.00107825 to 0.00107825
Heightened Def Con from 0.00108085 to 0.00108085
Heightened Def Con from 0.00108318 to 0.00108318
Heightened Def Con from 0.00108318 to 0.0010832
Heightened Def Con from 0.00108579 to 0.00108579
Heightened Def Con from 0.00108811 to 0.00108811
Heightened Def Con from 0.00108811 to 0.00108813
Heightened Def Con from 0.00109072 to 0.00109072
Heightened Def Con from 0.00109072 to 0.00109072
Heightened Def Con from 0.00109303 to 0.00109303
Heightened Def Con from 0.00109566 to 0.00109566
Heightened Def Con from 0.00109566 to 0.00109566
Heightened Def Con from 0.00109796 to 0.00109796
Heightened Def Con from 0.0011006 to 0.0011006
Heightened Def Con from 0.00110289 to 0.00110289
Heightened Def Con from 0.00110289 to 0.00110291
Heightened Def Con from 0.00110553 to 0.00110553
Heightened Def Con from 0.00110782 to 0.00110782
Heightened Def Con from 0.00111047 to 0.00111047
Heightened Def Con from 0.00111274 to 0.00111274
Heightened Def Con from 0.0011154 to 0.00111541
Heightened Def Con from 0.00111767 to 0.00111767
Heightened Def Con from 0.00112034 to 0.00112034
Heightened Def Con from 0.00112034 to 0.00112034
Heightened Def Con from 0.0011226 to 0.0011226
Heightened Def Con from 0.00112528 to 0.00112528
Heightened Def Con from 0.00112528 to 0.00112528
Heightened Def Con from 0.00112753 to 0.00112753
Heightened Def Con from 0.00112753 to 0.00112755
Heightened Def Con from 0.00113021 to 0.00113021
Heightened Def Con from 0.00113246 to 0.00113246
Heightened Def Con from 0.00113246 to 0.00113248
Heightened Def Con from 0.00113515 to 0.00113515
Heightened Def Con from 0.00113738 to 0.00113738
Heightened Def Con from 0.00113739 to 0.00113741
Heightened Def Con from 0.00114008 to 0.00114008
Heightened Def Con from 0.00114008 to 0.00114008
Heightened Def Con from 0.00114231 to 0.00114232
Heightened Def Con from 0.00114232 to 0.00114232
Heightened Def Con from 0.00114502 to 0.00114502
Heightened Def Con from 0.00114724 to 0.00114724
Heightened Def Con from 0.00114995 to 0.00114995
Heightened Def Con from 0.00114996 to 0.00114996
Heightened Def Con from 0.00115217 to 0.00115217
Heightened Def Con from 0.00115218 to 0.00115219
Heightened Def Con from 0.00115489 to 0.00115489
Heightened Def Con from 0.00115489 to 0.00115489
Heightened Def Con from 0.0011571 to 0.0011571
Heightened Def Con from 0.00115983 to 0.00115983
Heightened Def Con from 0.00116203 to 0.00116203
Heightened Def Con from 0.00116476 to 0.00116476
Heightened Def Con from 0.00116476 to 0.00116476
Heightened Def Con from 0.00116696 to 0.00116696
Heightened Def Con from 0.00116969 to 0.00116969
Heightened Def Con from 0.00117189 to 0.00117189
Heightened Def Con from 0.00117463 to 0.00117463
Heightened Def Con from 0.00117463 to 0.00117463
Heightened Def Con from 0.00117682 to 0.00117682
Heightened Def Con from 0.00117956 to 0.00117956
Heightened Def Con from 0.00118175 to 0.00118175
Heightened Def Con from 0.0011845 to 0.0011845
Heightened Def Con from 0.00118668 to 0.00118668
Heightened Def Con from 0.00118943 to 0.00118943
Heightened Def Con from 0.00119161 to 0.00119161
Heightened Def Con from 0.00119437 to 0.00119437
Heightened Def Con from 0.00119655 to 0.00119655
Heightened Def Con from 0.0011993 to 0.0011993
Heightened Def Con from 0.0011993 to 0.0011993
Heightened Def Con from 0.00120423 to 0.00120423
Heightened Def Con from 0.00120424 to 0.00120424
Heightened Def Con from 0.0012064 to 0.0012064
Heightened Def Con from 0.00120917 to 0.00120917
Heightened Def Con from 0.00121134 to 0.00121134
Heightened Def Con from 0.0012141 to 0.0012141
Heightened Def Con from 0.00121626 to 0.00121626
Heightened Def Con from 0.00121903 to 0.00121903
Heightened Def Con from 0.00121904 to 0.00121904
Heightened Def Con from 0.0012212 to 0.0012212
Heightened Def Con from 0.00122397 to 0.00122397
Heightened Def Con from 0.00122397 to 0.00122397
Heightened Def Con from 0.00122613 to 0.00122613
Heightened Def Con from 0.0012289 to 0.0012289
Heightened Def Con from 0.0012289 to 0.0012289
Heightened Def Con from 0.00123106 to 0.00123106
Heightened Def Con from 0.00123383 to 0.00123383
Heightened Def Con from 0.00123384 to 0.00123384
Heightened Def Con from 0.00123599 to 0.00123599
Heightened Def Con from 0.00123877 to 0.00123877
Heightened Def Con from 0.00123877 to 0.00123877
Heightened Def Con from 0.00124092 to 0.00124092
Heightened Def Con from 0.0012437 to 0.0012437
Heightened Def Con from 0.00124586 to 0.00124586
Heightened Def Con from 0.00124863 to 0.00124863
Heightened Def Con from 0.00125079 to 0.00125079
Heightened Def Con from 0.00125356 to 0.00125357
Heightened Def Con from 0.00125572 to 0.00125572
Heightened Def Con from 0.0012585 to 0.0012585
Heightened Def Con from 0.0012585 to 0.0012585
Heightened Def Con from 0.00126065 to 0.00126065
Heightened Def Con from 0.00126343 to 0.00126343
Heightened Def Con from 0.00126343 to 0.00126343
Heightened Def Con from 0.00126559 to 0.00126559
Heightened Def Con from 0.00126836 to 0.00126836
Heightened Def Con from 0.00127052 to 0.00127052
Heightened Def Con from 0.00127329 to 0.00127329
Heightened Def Con from 0.00127546 to 0.00127546
Heightened Def Con from 0.00127822 to 0.00127823
Heightened Def Con from 0.00128039 to 0.00128039
Heightened Def Con from 0.00128316 to 0.00128316
Heightened Def Con from 0.00128532 to 0.00128532
Heightened Def Con from 0.00128808 to 0.00128809
Heightened Def Con from 0.00128809 to 0.00128809
Heightened Def Con from 0.00129025 to 0.00129025
Heightened Def Con from 0.00129302 to 0.00129302
Heightened Def Con from 0.00129302 to 0.00129302
Heightened Def Con from 0.00129518 to 0.00129518
Heightened Def Con from 0.00129795 to 0.00129795
Heightened Def Con from 0.00130012 to 0.00130012
Heightened Def Con from 0.00130288 to 0.00130288
Heightened Def Con from 0.00130288 to 0.00130288
Heightened Def Con from 0.00130505 to 0.00130505
Heightened Def Con from 0.00130781 to 0.00130781
Heightened Def Con from 0.00130781 to 0.00130781
Heightened Def Con from 0.00130999 to 0.00130999
Heightened Def Con from 0.00131274 to 0.00131274
Heightened Def Con from 0.00131274 to 0.00131274
Heightened Def Con from 0.00131493 to 0.00131493
Heightened Def Con from 0.00131767 to 0.00131767
Heightened Def Con from 0.00131986 to 0.00131986
Heightened Def Con from 0.0013226 to 0.0013226
Heightened Def Con from 0.00132479 to 0.00132479
Heightened Def Con from 0.00132751 to 0.00132753
Heightened Def Con from 0.00132753 to 0.00132753
Heightened Def Con from 0.00132753 to 0.00132753
Heightened Def Con from 0.00132973 to 0.00132973
Heightened Def Con from 0.00133246 to 0.00133246
Heightened Def Con from 0.00133467 to 0.00133467
Heightened Def Con from 0.00133739 to 0.00133739
Heightened Def Con from 0.00133739 to 0.00133739
Heightened Def Con from 0.0013396 to 0.0013396
Heightened Def Con from 0.00134232 to 0.00134232
Heightened Def Con from 0.00134232 to 0.00134232
Heightened Def Con from 0.00134453 to 0.00134453
Heightened Def Con from 0.00134725 to 0.00134725
Heightened Def Con from 0.00134725 to 0.00134725
Heightened Def Con from 0.00134947 to 0.00134947
Heightened Def Con from 0.00135218 to 0.00135218
Heightened Def Con from 0.00135218 to 0.00135218
Heightened Def Con from 0.0013544 to 0.0013544
Heightened Def Con from 0.00135711 to 0.00135711
Heightened Def Con from 0.00135934 to 0.00135934
Heightened Def Con from 0.00135935 to 0.00135935
Heightened Def Con from 0.00136201 to 0.00136204
Heightened Def Con from 0.00136204 to 0.00136204
Heightened Def Con from 0.00136428 to 0.00136428
Heightened Def Con from 0.00136428 to 0.0013643
Heightened Def Con from 0.00136697 to 0.00136697
Heightened Def Con from 0.00136922 to 0.00136922
Heightened Def Con from 0.0013719 to 0.0013719
Heightened Def Con from 0.0013719 to 0.0013719
Heightened Def Con from 0.00137415 to 0.00137415
Heightened Def Con from 0.00137416 to 0.00137417
Heightened Def Con from 0.00137683 to 0.00137683
Heightened Def Con from 0.00137909 to 0.00137909
Heightened Def Con from 0.00138176 to 0.00138176
Heightened Def Con from 0.00138176 to 0.00138176
Heightened Def Con from 0.00138402 to 0.00138402
Heightened Def Con from 0.00138403 to 0.00138404
Heightened Def Con from 0.00138669 to 0.00138669
Heightened Def Con from 0.00138669 to 0.00138669
Heightened Def Con from 0.00138896 to 0.00138896
Heightened Def Con from 0.00138897 to 0.00138898
Heightened Def Con from 0.00139161 to 0.00139162
Heightened Def Con from 0.00139162 to 0.00139162
Heightened Def Con from 0.0013939 to 0.0013939
Heightened Def Con from 0.0013939 to 0.00139392
Heightened Def Con from 0.00139654 to 0.00139654
Heightened Def Con from 0.00139654 to 0.00139654
Heightened Def Con from 0.00139883 to 0.00139883
Heightened Def Con from 0.00140147 to 0.00140147
Heightened Def Con from 0.00140377 to 0.00140377
Heightened Def Con from 0.0014064 to 0.0014064
Heightened Def Con from 0.00140871 to 0.00140871
Heightened Def Con from 0.00141133 to 0.00141133
Heightened Def Con from 0.00141364 to 0.00141364
Heightened Def Con from 0.00141626 to 0.00141626
Heightened Def Con from 0.00141858 to 0.00141858
Heightened Def Con from 0.00141858 to 0.0014186
Heightened Def Con from 0.00142118 to 0.00142118
Heightened Def Con from 0.00142119 to 0.00142119
Heightened Def Con from 0.00142351 to 0.00142351
Heightened Def Con from 0.00142352 to 0.00142354
Heightened Def Con from 0.00142611 to 0.00142611
Heightened Def Con from 0.00142611 to 0.00142611
Heightened Def Con from 0.00142846 to 0.00142846
Heightened Def Con from 0.00143104 to 0.00143104
Heightened Def Con from 0.00143339 to 0.00143339
Heightened Def Con from 0.00143597 to 0.00143597
Heightened Def Con from 0.00143833 to 0.00143833
Heightened Def Con from 0.00143834 to 0.00143835
Heightened Def Con from 0.0014409 to 0.0014409
Heightened Def Con from 0.0014409 to 0.0014409
Heightened Def Con from 0.00144326 to 0.00144326
Heightened Def Con from 0.00144327 to 0.00144329
Heightened Def Con from 0.00144583 to 0.00144583
Heightened Def Con from 0.00144583 to 0.00144583
Heightened Def Con from 0.0014482 to 0.0014482
Heightened Def Con from 0.00145075 to 0.00145076
Heightened Def Con from 0.00145314 to 0.00145314
Heightened Def Con from 0.00145315 to 0.00145317
Heightened Def Con from 0.00145568 to 0.00145568
Heightened Def Con from 0.00145808 to 0.00145808
Heightened Def Con from 0.00146061 to 0.00146061
Heightened Def Con from 0.00146061 to 0.00146061
Heightened Def Con from 0.00146302 to 0.00146302
Heightened Def Con from 0.00146554 to 0.00146554
Heightened Def Con from 0.00146554 to 0.00146554
Heightened Def Con from 0.00146796 to 0.00146796
Heightened Def Con from 0.00146796 to 0.00146798
Heightened Def Con from 0.00147047 to 0.00147047
Heightened Def Con from 0.00147047 to 0.00147047
Heightened Def Con from 0.00147289 to 0.00147289
Heightened Def Con from 0.0014729 to 0.00147292
Heightened Def Con from 0.00147539 to 0.00147539
Heightened Def Con from 0.00147539 to 0.00147539
Heightened Def Con from 0.00147783 to 0.00147783
Heightened Def Con from 0.00147783 to 0.00147785
Heightened Def Con from 0.00148032 to 0.00148032
Heightened Def Con from 0.00148032 to 0.00148032
Heightened Def Con from 0.00148277 to 0.00148277
Heightened Def Con from 0.00148277 to 0.00148279
Heightened Def Con from 0.00148525 to 0.00148525
Heightened Def Con from 0.00148525 to 0.00148525
Heightened Def Con from 0.0014877 to 0.0014877
Heightened Def Con from 0.00149018 to 0.00149018
Heightened Def Con from 0.00149265 to 0.00149265
Heightened Def Con from 0.0014951 to 0.0014951
Heightened Def Con from 0.0014951 to 0.00149513
Heightened Def Con from 0.00149758 to 0.00149758
Heightened Def Con from 0.00149758 to 0.0014976
Heightened Def Con from 0.00150003 to 0.00150003
Heightened Def Con from 0.00150003 to 0.00150005
Heightened Def Con from 0.00150252 to 0.00150252
Heightened Def Con from 0.00150496 to 0.00150496
Heightened Def Con from 0.00150496 to 0.00150498
Heightened Def Con from 0.00150746 to 0.00150746
Heightened Def Con from 0.00150989 to 0.00150989
Heightened Def Con from 0.00150989 to 0.00150991
Heightened Def Con from 0.00151239 to 0.00151239
Heightened Def Con from 0.00151481 to 0.00151481
Heightened Def Con from 0.00151733 to 0.00151733
Heightened Def Con from 0.00151733 to 0.00151735
Heightened Def Con from 0.00151974 to 0.00151974
Heightened Def Con from 0.00151974 to 0.00151976
Heightened Def Con from 0.00152227 to 0.00152227
Heightened Def Con from 0.00152227 to 0.00152229
Heightened Def Con from 0.00152467 to 0.00152467
Heightened Def Con from 0.00152721 to 0.00152721
Heightened Def Con from 0.0015296 to 0.0015296
Heightened Def Con from 0.0015296 to 0.00152962
Heightened Def Con from 0.00153215 to 0.00153215
Heightened Def Con from 0.00153215 to 0.00153217
Heightened Def Con from 0.00153452 to 0.00153452
Heightened Def Con from 0.00153453 to 0.00153455
Heightened Def Con from 0.00153709 to 0.00153709
Heightened Def Con from 0.00153945 to 0.00153945
Heightened Def Con from 0.00153945 to 0.00153947
Heightened Def Con from 0.00154202 to 0.00154202
Heightened Def Con from 0.00154202 to 0.00154204
Heightened Def Con from 0.00154438 to 0.00154438
Heightened Def Con from 0.00154438 to 0.0015444
Heightened Def Con from 0.00154696 to 0.00154696
Heightened Def Con from 0.00154931 to 0.00154931
Heightened Def Con from 0.00154931 to 0.00154933
Heightened Def Con from 0.0015519 to 0.0015519
Heightened Def Con from 0.0015519 to 0.00155192
Heightened Def Con from 0.00155424 to 0.00155424
Heightened Def Con from 0.00155424 to 0.00155426
Heightened Def Con from 0.00155683 to 0.00155683
Heightened Def Con from 0.00155916 to 0.00155916
Heightened Def Con from 0.00156177 to 0.00156177
Heightened Def Con from 0.00156409 to 0.00156409
Heightened Def Con from 0.00156409 to 0.00156411
Heightened Def Con from 0.00156671 to 0.00156671
Heightened Def Con from 0.00156671 to 0.00156673
Heightened Def Con from 0.00156902 to 0.00156902
Heightened Def Con from 0.00156902 to 0.00156904
Heightened Def Con from 0.00157165 to 0.00157165
Heightened Def Con from 0.00157165 to 0.00157167
Heightened Def Con from 0.00157395 to 0.00157395
Heightened Def Con from 0.00157658 to 0.00157658
Heightened Def Con from 0.00157658 to 0.00157658
Heightened Def Con from 0.00157888 to 0.00157888
Heightened Def Con from 0.00157888 to 0.0015789
Heightened Def Con from 0.00158152 to 0.00158152
Heightened Def Con from 0.0015838 to 0.0015838
Heightened Def Con from 0.00158381 to 0.00158383
Heightened Def Con from 0.00158646 to 0.00158646
Heightened Def Con from 0.00158873 to 0.00158873
Heightened Def Con from 0.00158873 to 0.00158875
Heightened Def Con from 0.0015914 to 0.0015914
Heightened Def Con from 0.0015914 to 0.0015914
Heightened Def Con from 0.00159366 to 0.00159366
Heightened Def Con from 0.00159633 to 0.00159633
Heightened Def Con from 0.00159859 to 0.00159859
Heightened Def Con from 0.00159859 to 0.00159861
Heightened Def Con from 0.00160127 to 0.00160127
Heightened Def Con from 0.00160127 to 0.00160127
Heightened Def Con from 0.00160352 to 0.00160352
Heightened Def Con from 0.00160352 to 0.00160354
Heightened Def Con from 0.00160621 to 0.00160621
Heightened Def Con from 0.00160621 to 0.00160621
Heightened Def Con from 0.00160845 to 0.00160845
Heightened Def Con from 0.00160845 to 0.00160847
Heightened Def Con from 0.00161114 to 0.00161114
Heightened Def Con from 0.00161114 to 0.00161114
Heightened Def Con from 0.00161337 to 0.00161338
Heightened Def Con from 0.00161338 to 0.0016134
Heightened Def Con from 0.00161608 to 0.00161608
Heightened Def Con from 0.00161608 to 0.00161608
Heightened Def Con from 0.0016183 to 0.0016183
Heightened Def Con from 0.00161831 to 0.00161833
Heightened Def Con from 0.00162102 to 0.00162102
Heightened Def Con from 0.00162102 to 0.00162102
Heightened Def Con from 0.00162323 to 0.00162323
Heightened Def Con from 0.00162324 to 0.00162325
Heightened Def Con from 0.00162596 to 0.00162596
Heightened Def Con from 0.00162816 to 0.00162816
Heightened Def Con from 0.00163089 to 0.00163089
Heightened Def Con from 0.00163089 to 0.00163089
Heightened Def Con from 0.00163309 to 0.00163309
Heightened Def Con from 0.00163309 to 0.00163311
Heightened Def Con from 0.00163583 to 0.00163583
Heightened Def Con from 0.00163802 to 0.00163802
Heightened Def Con from 0.00164076 to 0.00164076
Heightened Def Con from 0.00164295 to 0.00164295
Heightened Def Con from 0.00164295 to 0.00164297
Heightened Def Con from 0.0016457 to 0.0016457
Heightened Def Con from 0.0016457 to 0.0016457
Heightened Def Con from 0.00164788 to 0.00164788
Heightened Def Con from 0.00164788 to 0.0016479
Heightened Def Con from 0.00165063 to 0.00165063
Heightened Def Con from 0.00165063 to 0.00165063
Heightened Def Con from 0.00165281 to 0.00165281
Heightened Def Con from 0.00165281 to 0.00165283
Heightened Def Con from 0.00165557 to 0.00165557
Heightened Def Con from 0.00165557 to 0.00165557
Heightened Def Con from 0.00165774 to 0.00165774
Heightened Def Con from 0.00165774 to 0.00165776
Heightened Def Con from 0.00166051 to 0.00166051
Heightened Def Con from 0.00166051 to 0.00166051
Heightened Def Con from 0.00166267 to 0.00166267
Heightened Def Con from 0.00166267 to 0.00166269
Heightened Def Con from 0.00166544 to 0.00166544
Heightened Def Con from 0.0016676 to 0.0016676
Heightened Def Con from 0.0016676 to 0.00166762
Heightened Def Con from 0.00167037 to 0.00167037
Heightened Def Con from 0.00167253 to 0.00167253
Heightened Def Con from 0.00167531 to 0.00167531
Heightened Def Con from 0.00167746 to 0.00167746
Heightened Def Con from 0.00168024 to 0.00168024
Heightened Def Con from 0.00168024 to 0.00168024
Heightened Def Con from 0.00168239 to 0.00168239
Heightened Def Con from 0.00168518 to 0.00168518
Heightened Def Con from 0.00168732 to 0.00168732
Heightened Def Con from 0.00169011 to 0.00169011
Heightened Def Con from 0.00169225 to 0.00169225
Heightened Def Con from 0.00169505 to 0.00169505
Heightened Def Con from 0.00169718 to 0.00169718
Heightened Def Con from 0.00169998 to 0.00169998
Heightened Def Con from 0.00170211 to 0.00170211
Heightened Def Con from 0.00170491 to 0.00170491
Heightened Def Con from 0.00170704 to 0.00170704
Heightened Def Con from 0.00170985 to 0.00170985
Heightened Def Con from 0.00171197 to 0.00171197
Heightened Def Con from 0.00171478 to 0.00171478
Heightened Def Con from 0.00171479 to 0.00171479
Heightened Def Con from 0.0017169 to 0.00171691
Heightened Def Con from 0.00171972 to 0.00171972
Heightened Def Con from 0.00172184 to 0.00172184
Heightened Def Con from 0.00172465 to 0.00172465
Heightened Def Con from 0.00172465 to 0.00172465
Heightened Def Con from 0.00172677 to 0.00172677
Heightened Def Con from 0.00172958 to 0.00172958
Heightened Def Con from 0.00172958 to 0.00172958
Heightened Def Con from 0.0017317 to 0.0017317
Heightened Def Con from 0.00173452 to 0.00173452
Heightened Def Con from 0.00173663 to 0.00173663
Heightened Def Con from 0.00173945 to 0.00173945
Heightened Def Con from 0.00174156 to 0.00174156
Heightened Def Con from 0.00174438 to 0.00174438
Heightened Def Con from 0.00174438 to 0.00174438
Heightened Def Con from 0.0017465 to 0.0017465
Heightened Def Con from 0.00174932 to 0.00174932
Heightened Def Con from 0.00175143 to 0.00175143
Heightened Def Con from 0.00175425 to 0.00175425
Heightened Def Con from 0.00175425 to 0.00175425
Heightened Def Con from 0.00175917 to 0.00175917
Heightened Def Con from 0.00175918 to 0.00175918
Heightened Def Con from 0.00176129 to 0.00176129
Heightened Def Con from 0.00176411 to 0.00176411
Heightened Def Con from 0.00176411 to 0.00176411
Heightened Def Con from 0.00176623 to 0.00176623
Heightened Def Con from 0.00176904 to 0.00176904
Heightened Def Con from 0.00177116 to 0.00177116
Heightened Def Con from 0.00177397 to 0.00177397
Heightened Def Con from 0.00177609 to 0.00177609
Heightened Def Con from 0.00177891 to 0.00177891
Heightened Def Con from 0.00178103 to 0.00178103
Heightened Def Con from 0.00178384 to 0.00178384
Heightened Def Con from 0.00178384 to 0.00178384
Heightened Def Con from 0.00178596 to 0.00178596
Heightened Def Con from 0.00178876 to 0.00178876
Heightened Def Con from 0.00179089 to 0.00179089
Heightened Def Con from 0.0017937 to 0.0017937
Heightened Def Con from 0.00179583 to 0.00179583
Heightened Def Con from 0.00179863 to 0.00179863
Heightened Def Con from 0.00179863 to 0.00179863
Heightened Def Con from 0.00180076 to 0.00180076
Heightened Def Con from 0.00180356 to 0.00180356
Heightened Def Con from 0.00180569 to 0.00180569
Heightened Def Con from 0.00180849 to 0.00180849
Heightened Def Con from 0.00181063 to 0.00181063
Heightened Def Con from 0.00181342 to 0.00181342
Heightened Def Con from 0.00181556 to 0.00181556
Heightened Def Con from 0.00181835 to 0.00181835
Heightened Def Con from 0.00181835 to 0.00181835
Heightened Def Con from 0.0018205 to 0.0018205
Heightened Def Con from 0.00182328 to 0.00182328
Heightened Def Con from 0.00182328 to 0.00182328
Heightened Def Con from 0.00182543 to 0.00182543
Heightened Def Con from 0.00182821 to 0.00182821
Heightened Def Con from 0.00182821 to 0.00182821
Heightened Def Con from 0.00183037 to 0.00183037
Heightened Def Con from 0.00183037 to 0.00183039
Heightened Def Con from 0.00183314 to 0.00183314
Heightened Def Con from 0.00183314 to 0.00183314
Heightened Def Con from 0.0018353 to 0.0018353
Heightened Def Con from 0.00183807 to 0.00183807
Heightened Def Con from 0.00183807 to 0.00183807
Heightened Def Con from 0.00184024 to 0.00184024
Heightened Def Con from 0.001843 to 0.001843
Heightened Def Con from 0.001843 to 0.001843
Heightened Def Con from 0.00184517 to 0.00184517
Heightened Def Con from 0.00184793 to 0.00184793
Heightened Def Con from 0.00184793 to 0.00184793
Heightened Def Con from 0.00185011 to 0.00185011
Heightened Def Con from 0.00185011 to 0.00185013
Heightened Def Con from 0.00185286 to 0.00185286
Heightened Def Con from 0.00185286 to 0.00185286
Heightened Def Con from 0.00185504 to 0.00185504
Heightened Def Con from 0.00185504 to 0.00185506
Heightened Def Con from 0.00185779 to 0.00185779
Heightened Def Con from 0.00185779 to 0.00185779
Heightened Def Con from 0.00185998 to 0.00185998
Heightened Def Con from 0.00185998 to 0.00186
Heightened Def Con from 0.00186272 to 0.00186272
Heightened Def Con from 0.00186491 to 0.00186491
Heightened Def Con from 0.00186492 to 0.00186493
Heightened Def Con from 0.00186764 to 0.00186764
Heightened Def Con from 0.00186982 to 0.00186982
Heightened Def Con from 0.00186985 to 0.00186985
Heightened Def Con from 0.00186985 to 0.00186987
Heightened Def Con from 0.00187257 to 0.00187257
Heightened Def Con from 0.00187478 to 0.00187478
Heightened Def Con from 0.00187479 to 0.00187481
Heightened Def Con from 0.0018775 to 0.0018775
Heightened Def Con from 0.0018775 to 0.0018775
Heightened Def Con from 0.00187972 to 0.00187972
Heightened Def Con from 0.00187972 to 0.00187974
Heightened Def Con from 0.00188243 to 0.00188243
Heightened Def Con from 0.00188466 to 0.00188466
Heightened Def Con from 0.00188466 to 0.00188468
Heightened Def Con from 0.00188736 to 0.00188736
Heightened Def Con from 0.00188736 to 0.00188736
Heightened Def Con from 0.00188959 to 0.00188959
Heightened Def Con from 0.00188959 to 0.00188961
Heightened Def Con from 0.00189228 to 0.00189228
Heightened Def Con from 0.00189228 to 0.00189228
Heightened Def Con from 0.00189453 to 0.00189453
Heightened Def Con from 0.00189453 to 0.00189455
Heightened Def Con from 0.00189721 to 0.00189721
Heightened Def Con from 0.00189721 to 0.00189721
Heightened Def Con from 0.00189946 to 0.00189946
Heightened Def Con from 0.00189947 to 0.00189948
Heightened Def Con from 0.00190214 to 0.00190214
Heightened Def Con from 0.0019044 to 0.0019044
Heightened Def Con from 0.00190707 to 0.00190707
Heightened Def Con from 0.00190934 to 0.00190934
Heightened Def Con from 0.00190934 to 0.00190936
Heightened Def Con from 0.001912 to 0.001912
Heightened Def Con from 0.001912 to 0.001912
Heightened Def Con from 0.00191427 to 0.00191427
Heightened Def Con from 0.00191427 to 0.00191429
Heightened Def Con from 0.00191693 to 0.00191693
Heightened Def Con from 0.00191693 to 0.00191693
Heightened Def Con from 0.00191921 to 0.00191921
Heightened Def Con from 0.00191921 to 0.00191923
Heightened Def Con from 0.00192185 to 0.00192185
Heightened Def Con from 0.00192185 to 0.00192187
Heightened Def Con from 0.00192415 to 0.00192415
Heightened Def Con from 0.00192415 to 0.00192417
Heightened Def Con from 0.00192678 to 0.00192678
Heightened Def Con from 0.00192678 to 0.00192678
Heightened Def Con from 0.00192908 to 0.00192908
Heightened Def Con from 0.0019317 to 0.0019317
Heightened Def Con from 0.00193402 to 0.00193402
Heightened Def Con from 0.00193663 to 0.00193663
Heightened Def Con from 0.00193663 to 0.00193665
Heightened Def Con from 0.00193896 to 0.00193896
Heightened Def Con from 0.00193896 to 0.00193898
Heightened Def Con from 0.00194156 to 0.00194156
Heightened Def Con from 0.00194156 to 0.00194158
Heightened Def Con from 0.00194389 to 0.00194391
Heightened Def Con from 0.00194649 to 0.00194649
Heightened Def Con from 0.00194649 to 0.00194651
Heightened Def Con from 0.00194883 to 0.00194883
Heightened Def Con from 0.00195142 to 0.00195142
Heightened Def Con from 0.00195142 to 0.00195144
Heightened Def Con from 0.00195377 to 0.00195377
Heightened Def Con from 0.00195634 to 0.00195634
Heightened Def Con from 0.00195634 to 0.00195636
Heightened Def Con from 0.0019587 to 0.0019587
Heightened Def Con from 0.0019587 to 0.00195873
Heightened Def Con from 0.00196127 to 0.00196127
Heightened Def Con from 0.00196127 to 0.00196129
Heightened Def Con from 0.00196364 to 0.00196364
Heightened Def Con from 0.0019662 to 0.0019662
Heightened Def Con from 0.00196858 to 0.00196858
Heightened Def Con from 0.00196858 to 0.0019686
Heightened Def Con from 0.00197112 to 0.00197112
Heightened Def Con from 0.00197112 to 0.00197114
Heightened Def Con from 0.00197351 to 0.00197351
Heightened Def Con from 0.00197352 to 0.00197354
Heightened Def Con from 0.00197605 to 0.00197605
Heightened Def Con from 0.00197605 to 0.00197607
Heightened Def Con from 0.00197845 to 0.00197845
Heightened Def Con from 0.00197845 to 0.00197847
Heightened Def Con from 0.00198098 to 0.00198098
Heightened Def Con from 0.00198339 to 0.00198339
Heightened Def Con from 0.00198339 to 0.00198341
Heightened Def Con from 0.0019859 to 0.0019859
Heightened Def Con from 0.00198833 to 0.00198833
Heightened Def Con from 0.00198833 to 0.00198835
Heightened Def Con from 0.00199083 to 0.00199083
Heightened Def Con from 0.00199083 to 0.00199085
Heightened Def Con from 0.00199326 to 0.00199326
Heightened Def Con from 0.00199326 to 0.00199328
Heightened Def Con from 0.00199576 to 0.00199576
Heightened Def Con from 0.00199576 to 0.00199578
Heightened Def Con from 0.0019982 to 0.0019982
Heightened Def Con from 0.0019982 to 0.00199822
Heightened Def Con from 0.00200069 to 0.00200069
Heightened Def Con from 0.00200314 to 0.00200314
Heightened Def Con from 0.00200314 to 0.00200316
Heightened Def Con from 0.00200561 to 0.00200561
Heightened Def Con from 0.00200561 to 0.00200563
Heightened Def Con from 0.00200807 to 0.00200807
Heightened Def Con from 0.00201054 to 0.00201054
Heightened Def Con from 0.00201301 to 0.00201301
Heightened Def Con from 0.00201546 to 0.00201546
Heightened Def Con from 0.00201795 to 0.00201795
Heightened Def Con from 0.00201795 to 0.00201795
Heightened Def Con from 0.00202039 to 0.00202039
Heightened Def Con from 0.00202289 to 0.00202289
Heightened Def Con from 0.00202532 to 0.00202532
Heightened Def Con from 0.00203025 to 0.00203025
Heightened Def Con from 0.00203025 to 0.00203027
Heightened Def Con from 0.00203276 to 0.00203276
Heightened Def Con from 0.00203276 to 0.00203276
Heightened Def Con from 0.00203517 to 0.00203517
Heightened Def Con from 0.0020377 to 0.0020377
Heightened Def Con from 0.0020377 to 0.0020377
Heightened Def Con from 0.0020401 to 0.0020401
Heightened Def Con from 0.0020401 to 0.00204012
Heightened Def Con from 0.00204264 to 0.00204264
Heightened Def Con from 0.00204264 to 0.00204264
Heightened Def Con from 0.00204503 to 0.00204503
Heightened Def Con from 0.00204503 to 0.00204505
Heightened Def Con from 0.00204757 to 0.00204757
Heightened Def Con from 0.00204995 to 0.00204995
Heightened Def Con from 0.00204996 to 0.00204997
Heightened Def Con from 0.00205251 to 0.00205251
Heightened Def Con from 0.00205488 to 0.00205488
Heightened Def Con from 0.00205745 to 0.00205745
Heightened Def Con from 0.00205745 to 0.00205745
Heightened Def Con from 0.00205981 to 0.00205981
Heightened Def Con from 0.00206238 to 0.00206238
Heightened Def Con from 0.00206473 to 0.00206473
Heightened Def Con from 0.00206732 to 0.00206732
Heightened Def Con from 0.00206732 to 0.00206732
Heightened Def Con from 0.00206966 to 0.00206966
Heightened Def Con from 0.00206967 to 0.00206969
Heightened Def Con from 0.00207226 to 0.00207226
Heightened Def Con from 0.00207459 to 0.00207459
Heightened Def Con from 0.00207719 to 0.00207719
Heightened Def Con from 0.00207719 to 0.00207719
Heightened Def Con from 0.00207952 to 0.00207952
Heightened Def Con from 0.00207952 to 0.00207954
Heightened Def Con from 0.00208213 to 0.00208213
Heightened Def Con from 0.00208213 to 0.00208213
Heightened Def Con from 0.00208445 to 0.00208445
Heightened Def Con from 0.00208445 to 0.00208447
Heightened Def Con from 0.00208707 to 0.00208707
Heightened Def Con from 0.00208937 to 0.00208937
Heightened Def Con from 0.00208938 to 0.0020894
Heightened Def Con from 0.002092 to 0.002092
Heightened Def Con from 0.0020943 to 0.0020943
Heightened Def Con from 0.0020943 to 0.00209432
Heightened Def Con from 0.00209694 to 0.00209694
Heightened Def Con from 0.00209694 to 0.00209694
Heightened Def Con from 0.00209923 to 0.00209923
Heightened Def Con from 0.00209924 to 0.00209925
Heightened Def Con from 0.00210187 to 0.00210187
Heightened Def Con from 0.00210187 to 0.00210187
Heightened Def Con from 0.00210416 to 0.00210416
Heightened Def Con from 0.00210681 to 0.00210681
Heightened Def Con from 0.00210908 to 0.00210908
Heightened Def Con from 0.00211175 to 0.00211175
Heightened Def Con from 0.00211175 to 0.00211175
Heightened Def Con from 0.00211402 to 0.00211402
Heightened Def Con from 0.00211668 to 0.00211668
Heightened Def Con from 0.00211668 to 0.00211668
Heightened Def Con from 0.00211894 to 0.00211894
Heightened Def Con from 0.00212162 to 0.00212162
Heightened Def Con from 0.00212162 to 0.00212162
Heightened Def Con from 0.00212387 to 0.00212387
Heightened Def Con from 0.00212656 to 0.00212656
Heightened Def Con from 0.0021288 to 0.0021288
Heightened Def Con from 0.00213149 to 0.00213149
Heightened Def Con from 0.00213373 to 0.00213373
Heightened Def Con from 0.00213373 to 0.00213375
Heightened Def Con from 0.00213643 to 0.00213643
Heightened Def Con from 0.00213865 to 0.00213865
Heightened Def Con from 0.00214136 to 0.00214136
Heightened Def Con from 0.00214136 to 0.00214136
Heightened Def Con from 0.00214358 to 0.00214358
Heightened Def Con from 0.0021463 to 0.0021463
Heightened Def Con from 0.00214852 to 0.00214852
Heightened Def Con from 0.00214852 to 0.00214854
Heightened Def Con from 0.00215123 to 0.00215123
Heightened Def Con from 0.00215344 to 0.00215344
Heightened Def Con from 0.00215617 to 0.00215617
Heightened Def Con from 0.00215837 to 0.00215837
Heightened Def Con from 0.0021611 to 0.0021611
Heightened Def Con from 0.0021633 to 0.0021633
Heightened Def Con from 0.00216604 to 0.00216604
Heightened Def Con from 0.00216604 to 0.00216604
Heightened Def Con from 0.00216823 to 0.00216823
Heightened Def Con from 0.00217097 to 0.00217097
Heightened Def Con from 0.00217097 to 0.00217097
Heightened Def Con from 0.00217316 to 0.00217316
Heightened Def Con from 0.00217591 to 0.00217591
Heightened Def Con from 0.00217809 to 0.00217809
Heightened Def Con from 0.00218084 to 0.00218084
Heightened Def Con from 0.00218302 to 0.00218302
Heightened Def Con from 0.00218577 to 0.00218577
Heightened Def Con from 0.00218578 to 0.00218578
Heightened Def Con from 0.00218795 to 0.00218795
Heightened Def Con from 0.00219071 to 0.00219071
Heightened Def Con from 0.00219288 to 0.00219288
Heightened Def Con from 0.00219564 to 0.00219564
Heightened Def Con from 0.00219564 to 0.00219564
Heightened Def Con from 0.00219781 to 0.00219781
Heightened Def Con from 0.00220058 to 0.00220058
Heightened Def Con from 0.00220058 to 0.00220058
Heightened Def Con from 0.00220274 to 0.00220274
Heightened Def Con from 0.00220551 to 0.00220551
Heightened Def Con from 0.00220551 to 0.00220551
Heightened Def Con from 0.00220767 to 0.00220767
Heightened Def Con from 0.00221045 to 0.00221045
Heightened Def Con from 0.00221261 to 0.00221261
Heightened Def Con from 0.00221538 to 0.00221538
Heightened Def Con from 0.00221538 to 0.00221538
Heightened Def Con from 0.00221754 to 0.00221754
Heightened Def Con from 0.00222031 to 0.00222031
Heightened Def Con from 0.00222031 to 0.00222031
Heightened Def Con from 0.00222246 to 0.00222246
Heightened Def Con from 0.00222525 to 0.00222525
Heightened Def Con from 0.0022274 to 0.0022274
Heightened Def Con from 0.00223018 to 0.00223018
Heightened Def Con from 0.00223018 to 0.00223018
Heightened Def Con from 0.00223233 to 0.00223233
Heightened Def Con from 0.00223511 to 0.00223511
Heightened Def Con from 0.00223726 to 0.00223726
Heightened Def Con from 0.00224004 to 0.00224004
Heightened Def Con from 0.0022422 to 0.0022422
Heightened Def Con from 0.00224495 to 0.00224497
Heightened Def Con from 0.00224498 to 0.00224498
Heightened Def Con from 0.00224713 to 0.00224713
Heightened Def Con from 0.00224991 to 0.00224991
Heightened Def Con from 0.00224991 to 0.00224991
Heightened Def Con from 0.00225206 to 0.00225206
Heightened Def Con from 0.00225484 to 0.00225484
Heightened Def Con from 0.00225699 to 0.00225699
Heightened Def Con from 0.00225977 to 0.00225977
Heightened Def Con from 0.00225977 to 0.00225977
Heightened Def Con from 0.00226192 to 0.00226192
Heightened Def Con from 0.0022647 to 0.0022647
Heightened Def Con from 0.0022647 to 0.0022647
Heightened Def Con from 0.00226686 to 0.00226686
Heightened Def Con from 0.00226964 to 0.00226964
Heightened Def Con from 0.00227179 to 0.00227179
Heightened Def Con from 0.00227457 to 0.00227457
Heightened Def Con from 0.00227457 to 0.00227457
Heightened Def Con from 0.00227672 to 0.00227672
Heightened Def Con from 0.0022795 to 0.0022795
Heightened Def Con from 0.00228166 to 0.00228166
Heightened Def Con from 0.00228443 to 0.00228443
Heightened Def Con from 0.00228443 to 0.00228443
Heightened Def Con from 0.00228659 to 0.0022866
Heightened Def Con from 0.00228936 to 0.00228936
Heightened Def Con from 0.00229152 to 0.00229152
Heightened Def Con from 0.00229429 to 0.00229429
Heightened Def Con from 0.00229646 to 0.00229646
Heightened Def Con from 0.00229922 to 0.00229922
Heightened Def Con from 0.00230139 to 0.00230139
Heightened Def Con from 0.00230415 to 0.00230415
Heightened Def Con from 0.00230416 to 0.00230416
Heightened Def Con from 0.00230633 to 0.00230633
Heightened Def Con from 0.00230908 to 0.00230908
Heightened Def Con from 0.00230909 to 0.00230909
Heightened Def Con from 0.00231126 to 0.00231126
Heightened Def Con from 0.00231401 to 0.00231402
Heightened Def Con from 0.00231402 to 0.00231402
Heightened Def Con from 0.00231619 to 0.00231619
Heightened Def Con from 0.00231895 to 0.00231895
Heightened Def Con from 0.00232113 to 0.00232113
Heightened Def Con from 0.00232388 to 0.00232388
Heightened Def Con from 0.00232606 to 0.00232606
Heightened Def Con from 0.00232881 to 0.00232881
Heightened Def Con from 0.002331 to 0.002331
Heightened Def Con from 0.00233374 to 0.00233374
Heightened Def Con from 0.00233593 to 0.00233593
Heightened Def Con from 0.00233867 to 0.00233867
Heightened Def Con from 0.00234087 to 0.00234087
Heightened Def Con from 0.0023436 to 0.0023436
Heightened Def Con from 0.0023458 to 0.0023458
Heightened Def Con from 0.00234852 to 0.00234853
Heightened Def Con from 0.00234853 to 0.00234853
Heightened Def Con from 0.00235074 to 0.00235074
Heightened Def Con from 0.00235346 to 0.00235346
Heightened Def Con from 0.00235567 to 0.00235567
Heightened Def Con from 0.00235839 to 0.00235839
Heightened Def Con from 0.00236061 to 0.00236061
Heightened Def Con from 0.00236331 to 0.00236332
Heightened Def Con from 0.00236554 to 0.00236554
Heightened Def Con from 0.00236824 to 0.00236824
Heightened Def Con from 0.00237048 to 0.00237048
Heightened Def Con from 0.00237317 to 0.00237317
Heightened Def Con from 0.00237542 to 0.00237542
Heightened Def Con from 0.00237542 to 0.00237544
Heightened Def Con from 0.0023781 to 0.0023781
Heightened Def Con from 0.00238036 to 0.00238036
Heightened Def Con from 0.00238036 to 0.00238038
Heightened Def Con from 0.00238303 to 0.00238303
Heightened Def Con from 0.00238529 to 0.00238529
Heightened Def Con from 0.00238529 to 0.00238531
Heightened Def Con from 0.00238796 to 0.00238796
[...]
Heightened Def Con from 0.00437797 to 0.00437799
Heightened Def Con from 0.00438065 to 0.00438065
Heightened Def Con from 0.00438065 to 0.00438065
Heightened Def Con from 0.0043829 to 0.0043829
Heightened Def Con from 0.00438291 to 0.00438292
Heightened Def Con from 0.00438558 to 0.00438558
Heightened Def Con from 0.00438784 to 0.00438784
Heightened Def Con from 0.0043905 to 0.00439051
Heightened Def Con from 0.00439051 to 0.00439051
Heightened Def Con from 0.00439277 to 0.00439278
Heightened Def Con from 0.00439544 to 0.00439544
Heightened Def Con from 0.00439771 to 0.00439771
Heightened Def Con from 0.00440036 to 0.00440036
Heightened Def Con from 0.00440265 to 0.00440265
Heightened Def Con from 0.00440265 to 0.00440267
Heightened Def Con from 0.00440529 to 0.00440529
Heightened Def Con from 0.00440529 to 0.00440529
Heightened Def Con from 0.00440758 to 0.00440758
Heightened Def Con from 0.00441022 to 0.00441022
Heightened Def Con from 0.00441022 to 0.00441022
Heightened Def Con from 0.00441252 to 0.00441252
Heightened Def Con from 0.00441515 to 0.00441515
Heightened Def Con from 0.00441746 to 0.00441746
Heightened Def Con from 0.00441746 to 0.00441748
Heightened Def Con from 0.00442008 to 0.00442008
Heightened Def Con from 0.0044224 to 0.0044224
Heightened Def Con from 0.0044224 to 0.00442242
Heightened Def Con from 0.00442501 to 0.00442501
Heightened Def Con from 0.00442733 to 0.00442733
Heightened Def Con from 0.00442993 to 0.00442993
Heightened Def Con from 0.00442993 to 0.00442993
Heightened Def Con from 0.00443227 to 0.00443227
Heightened Def Con from 0.00443228 to 0.0044323
Heightened Def Con from 0.00443486 to 0.00443486
Heightened Def Con from 0.0044372 to 0.00443721
Heightened Def Con from 0.00443979 to 0.00443979
Heightened Def Con from 0.00444215 to 0.00444215
Heightened Def Con from 0.00444215 to 0.00444217
Heightened Def Con from 0.00444472 to 0.00444472
Heightened Def Con from 0.00444709 to 0.00444709
Heightened Def Con from 0.00444965 to 0.00444965
Heightened Def Con from 0.00445202 to 0.00445202
Heightened Def Con from 0.00445457 to 0.00445457
Heightened Def Con from 0.00445457 to 0.00445457
Heightened Def Con from 0.00445696 to 0.00445696
Heightened Def Con from 0.0044595 to 0.0044595
Heightened Def Con from 0.0044595 to 0.0044595
Heightened Def Con from 0.00446189 to 0.00446189
Heightened Def Con from 0.00446189 to 0.00446191
Heightened Def Con from 0.00446443 to 0.00446443
Heightened Def Con from 0.00446683 to 0.00446683
Heightened Def Con from 0.00446684 to 0.00446686
Heightened Def Con from 0.00446936 to 0.00446936
Heightened Def Con from 0.00446936 to 0.00446936
Heightened Def Con from 0.00447178 to 0.00447178
Heightened Def Con from 0.00447429 to 0.00447429
Heightened Def Con from 0.00447671 to 0.00447671
Heightened Def Con from 0.00447671 to 0.00447673
Heightened Def Con from 0.00447921 to 0.00447921
Heightened Def Con from 0.00447921 to 0.00447921
Heightened Def Con from 0.00448165 to 0.00448165
Heightened Def Con from 0.00448414 to 0.00448414
Heightened Def Con from 0.00448414 to 0.00448414
Heightened Def Con from 0.00448659 to 0.00448659
Heightened Def Con from 0.00448659 to 0.00448661
Heightened Def Con from 0.00448907 to 0.00448907
Heightened Def Con from 0.00448907 to 0.00448907
Heightened Def Con from 0.00449153 to 0.00449153
Heightened Def Con from 0.00449153 to 0.00449155
Heightened Def Con from 0.00449399 to 0.00449399
Heightened Def Con from 0.004494 to 0.00449402
Heightened Def Con from 0.00449646 to 0.00449646
Heightened Def Con from 0.00449892 to 0.00449892
Heightened Def Con from 0.0045014 to 0.0045014
Heightened Def Con from 0.0045014 to 0.00450142
Heightened Def Con from 0.00450385 to 0.00450385
Heightened Def Con from 0.00450385 to 0.00450387
Heightened Def Con from 0.00450634 to 0.00450634
Heightened Def Con from 0.00450878 to 0.00450878
Heightened Def Con from 0.00450878 to 0.0045088
Heightened Def Con from 0.00451128 to 0.00451128
Heightened Def Con from 0.00451128 to 0.0045113
Heightened Def Con from 0.00451371 to 0.00451371
Heightened Def Con from 0.00451371 to 0.00451373
Heightened Def Con from 0.00451621 to 0.00451621
Heightened Def Con from 0.00451621 to 0.00451623
Heightened Def Con from 0.00451863 to 0.00451863
Heightened Def Con from 0.00451863 to 0.00451865
Heightened Def Con from 0.00452115 to 0.00452115
Heightened Def Con from 0.00452356 to 0.00452356
Heightened Def Con from 0.00452356 to 0.00452358
Heightened Def Con from 0.00452609 to 0.00452609
Heightened Def Con from 0.00452849 to 0.00452849
Heightened Def Con from 0.00452849 to 0.00452851
Heightened Def Con from 0.00453103 to 0.00453103
Heightened Def Con from 0.00453342 to 0.00453342
Heightened Def Con from 0.00453342 to 0.00453344
Heightened Def Con from 0.00453597 to 0.00453597
Heightened Def Con from 0.00453597 to 0.00453599
Heightened Def Con from 0.00453834 to 0.00453834
Heightened Def Con from 0.00453834 to 0.00453836
Heightened Def Con from 0.0045409 to 0.0045409
Heightened Def Con from 0.0045409 to 0.00454092
Heightened Def Con from 0.00454327 to 0.00454327
Heightened Def Con from 0.00454327 to 0.00454329
Heightened Def Con from 0.00454584 to 0.00454584
Heightened Def Con from 0.00454584 to 0.00454586
Heightened Def Con from 0.0045482 to 0.0045482
Heightened Def Con from 0.0045482 to 0.00454822
Heightened Def Con from 0.00455078 to 0.00455078
Heightened Def Con from 0.00455078 to 0.0045508
Heightened Def Con from 0.00455313 to 0.00455313
Heightened Def Con from 0.00455572 to 0.00455572
Heightened Def Con from 0.00455572 to 0.00455574
Heightened Def Con from 0.00455805 to 0.00455805
Heightened Def Con from 0.00456065 to 0.00456065
Heightened Def Con from 0.00456065 to 0.00456067
Heightened Def Con from 0.00456298 to 0.00456298
Heightened Def Con from 0.00456298 to 0.004563
Heightened Def Con from 0.00456559 to 0.00456559
Heightened Def Con from 0.00456791 to 0.00456791
Heightened Def Con from 0.00456791 to 0.00456793
Heightened Def Con from 0.00457053 to 0.00457053
Heightened Def Con from 0.00457053 to 0.00457055
Heightened Def Con from 0.00457284 to 0.00457284
Heightened Def Con from 0.00457546 to 0.00457546
Heightened Def Con from 0.00457547 to 0.00457547
Heightened Def Con from 0.00457777 to 0.00457777
Heightened Def Con from 0.0045804 to 0.0045804
Heightened Def Con from 0.0045804 to 0.0045804
Heightened Def Con from 0.00458269 to 0.00458269
Heightened Def Con from 0.00458534 to 0.00458534
Heightened Def Con from 0.00458534 to 0.00458534
Heightened Def Con from 0.00458762 to 0.00458762
Heightened Def Con from 0.00458762 to 0.00458764
Heightened Def Con from 0.00459028 to 0.00459028
Heightened Def Con from 0.00459255 to 0.00459255
Heightened Def Con from 0.00459521 to 0.00459521
Heightened Def Con from 0.00459521 to 0.00459521
Heightened Def Con from 0.00459748 to 0.00459748
Heightened Def Con from 0.00459748 to 0.0045975
Heightened Def Con from 0.00460015 to 0.00460015
Heightened Def Con from 0.00460015 to 0.00460015
Heightened Def Con from 0.00460241 to 0.00460241
Heightened Def Con from 0.00460508 to 0.00460508
Heightened Def Con from 0.00460508 to 0.00460508
Heightened Def Con from 0.00460734 to 0.00460734
Heightened Def Con from 0.00460734 to 0.00460736
Heightened Def Con from 0.00461002 to 0.00461002
Heightened Def Con from 0.00461002 to 0.00461002
Heightened Def Con from 0.00461226 to 0.00461226
Heightened Def Con from 0.00461227 to 0.00461229
Heightened Def Con from 0.00461496 to 0.00461496
Heightened Def Con from 0.00461719 to 0.00461719
Heightened Def Con from 0.0046172 to 0.00461722
Heightened Def Con from 0.0046199 to 0.0046199
Heightened Def Con from 0.00462212 to 0.00462212
Heightened Def Con from 0.00462483 to 0.00462483
Heightened Def Con from 0.00462483 to 0.00462483
Heightened Def Con from 0.00462705 to 0.00462705
Heightened Def Con from 0.00462705 to 0.00462707
Heightened Def Con from 0.00462977 to 0.00462977
Heightened Def Con from 0.00462977 to 0.00462977
Heightened Def Con from 0.00463198 to 0.00463198
Heightened Def Con from 0.0046347 to 0.0046347
Heightened Def Con from 0.00463471 to 0.00463471
Heightened Def Con from 0.00463691 to 0.00463691
Heightened Def Con from 0.00463691 to 0.00463693
Heightened Def Con from 0.00463964 to 0.00463964
Heightened Def Con from 0.00464184 to 0.00464184
Heightened Def Con from 0.00464184 to 0.00464186
Heightened Def Con from 0.00464458 to 0.00464458
Heightened Def Con from 0.00464458 to 0.00464458
Heightened Def Con from 0.00464677 to 0.00464677
Heightened Def Con from 0.00464677 to 0.00464679
Heightened Def Con from 0.00464951 to 0.00464951
Heightened Def Con from 0.0046517 to 0.0046517
Heightened Def Con from 0.0046517 to 0.00465172
Heightened Def Con from 0.00465444 to 0.00465444
Heightened Def Con from 0.00465445 to 0.00465445
Heightened Def Con from 0.00465663 to 0.00465663
Heightened Def Con from 0.00465938 to 0.00465938
Heightened Def Con from 0.00465938 to 0.00465938
Heightened Def Con from 0.00466156 to 0.00466156
Heightened Def Con from 0.00466432 to 0.00466432
Heightened Def Con from 0.00466432 to 0.00466432
Heightened Def Con from 0.00466649 to 0.00466649
Heightened Def Con from 0.00466925 to 0.00466925
Heightened Def Con from 0.00466925 to 0.00466925
Heightened Def Con from 0.00467142 to 0.00467142
Heightened Def Con from 0.00467419 to 0.00467419
Heightened Def Con from 0.00467635 to 0.00467635
Heightened Def Con from 0.00467635 to 0.00467635
Heightened Def Con from 0.00467912 to 0.00467912
Heightened Def Con from 0.00468128 to 0.00468128
Heightened Def Con from 0.00468406 to 0.00468406
Heightened Def Con from 0.00468621 to 0.00468621
Heightened Def Con from 0.00468899 to 0.00468899
Heightened Def Con from 0.00469114 to 0.00469114
Heightened Def Con from 0.00469392 to 0.00469393
Heightened Def Con from 0.00469393 to 0.00469393
Heightened Def Con from 0.00469607 to 0.00469607
Heightened Def Con from 0.00469886 to 0.00469886
Heightened Def Con from 0.00469886 to 0.00469886
Heightened Def Con from 0.004701 to 0.004701
Heightened Def Con from 0.00470379 to 0.00470379
Heightened Def Con from 0.00470593 to 0.00470593
Heightened Def Con from 0.00470872 to 0.00470872
Heightened Def Con from 0.00470873 to 0.00470873
Heightened Def Con from 0.00471086 to 0.00471086
Heightened Def Con from 0.00471366 to 0.00471366
Heightened Def Con from 0.00471579 to 0.00471579
Heightened Def Con from 0.0047186 to 0.0047186
Heightened Def Con from 0.00472073 to 0.00472073
Heightened Def Con from 0.00472353 to 0.00472353
Heightened Def Con from 0.00472353 to 0.00472353
Heightened Def Con from 0.00472566 to 0.00472566
Heightened Def Con from 0.00472846 to 0.00472846
Heightened Def Con from 0.00472847 to 0.00472847
Heightened Def Con from 0.00473059 to 0.00473059
Heightened Def Con from 0.0047334 to 0.0047334
Heightened Def Con from 0.0047334 to 0.0047334
Heightened Def Con from 0.00473552 to 0.00473552
Heightened Def Con from 0.00473832 to 0.00473832
Heightened Def Con from 0.00473833 to 0.00473833
Heightened Def Con from 0.00474045 to 0.00474045
Heightened Def Con from 0.00474326 to 0.00474326
Heightened Def Con from 0.00474326 to 0.00474326
Heightened Def Con from 0.00474538 to 0.00474539
Heightened Def Con from 0.0047482 to 0.0047482
Heightened Def Con from 0.00475032 to 0.00475032
Heightened Def Con from 0.00475313 to 0.00475313
Heightened Def Con from 0.00475525 to 0.00475525
Heightened Def Con from 0.00475806 to 0.00475806
Heightened Def Con from 0.00475806 to 0.00475806
Heightened Def Con from 0.00476018 to 0.00476018
Heightened Def Con from 0.00476299 to 0.00476299
Heightened Def Con from 0.00476511 to 0.00476511
Heightened Def Con from 0.00476792 to 0.00476792
Heightened Def Con from 0.00476792 to 0.00476792
Heightened Def Con from 0.00477005 to 0.00477005
Heightened Def Con from 0.00477285 to 0.00477285
Heightened Def Con from 0.00477285 to 0.00477285
Heightened Def Con from 0.00477498 to 0.00477498
Heightened Def Con from 0.00477778 to 0.00477778
Heightened Def Con from 0.00477778 to 0.00477778
Heightened Def Con from 0.00477991 to 0.00477991
Heightened Def Con from 0.00478271 to 0.00478271
Heightened Def Con from 0.00478272 to 0.00478272
Heightened Def Con from 0.00478485 to 0.00478485
Heightened Def Con from 0.00478765 to 0.00478765
Heightened Def Con from 0.00478765 to 0.00478765
Heightened Def Con from 0.00478978 to 0.00478978
Heightened Def Con from 0.00479258 to 0.00479258
Heightened Def Con from 0.00479258 to 0.00479258
Heightened Def Con from 0.00479471 to 0.00479471
Heightened Def Con from 0.00479751 to 0.00479751
Heightened Def Con from 0.00479751 to 0.00479751
Heightened Def Con from 0.00479962 to 0.00479964
Heightened Def Con from 0.00479965 to 0.00479965
Heightened Def Con from 0.00480244 to 0.00480244
Heightened Def Con from 0.00480458 to 0.00480458
Heightened Def Con from 0.00480737 to 0.00480737
Heightened Def Con from 0.00480952 to 0.00480952
Heightened Def Con from 0.0048123 to 0.0048123
Heightened Def Con from 0.0048123 to 0.0048123
Heightened Def Con from 0.00481445 to 0.00481445
Heightened Def Con from 0.00481723 to 0.00481723
Heightened Def Con from 0.00481939 to 0.00481939
Heightened Def Con from 0.00482216 to 0.00482216
Heightened Def Con from 0.00482432 to 0.00482432
Heightened Def Con from 0.00482432 to 0.00482434
Heightened Def Con from 0.00482709 to 0.00482709
Heightened Def Con from 0.00482709 to 0.00482709
Heightened Def Con from 0.00483202 to 0.00483202
Heightened Def Con from 0.00483202 to 0.00483202
Heightened Def Con from 0.00483419 to 0.00483419
Heightened Def Con from 0.00483419 to 0.00483421
Heightened Def Con from 0.00483695 to 0.00483695
Heightened Def Con from 0.00483912 to 0.00483912
Heightened Def Con from 0.00483913 to 0.00483915
Heightened Def Con from 0.00484188 to 0.00484188
Heightened Def Con from 0.00484188 to 0.00484188
Heightened Def Con from 0.00484403 to 0.00484405
Heightened Def Con from 0.00484406 to 0.00484406
Heightened Def Con from 0.00484406 to 0.00484408
Heightened Def Con from 0.0048468 to 0.00484681
Heightened Def Con from 0.00484899 to 0.00484899
Heightened Def Con from 0.004849 to 0.00484902
Heightened Def Con from 0.00485174 to 0.00485174
Heightened Def Con from 0.00485393 to 0.00485393
Heightened Def Con from 0.00485393 to 0.00485395
Heightened Def Con from 0.00485667 to 0.00485667
Heightened Def Con from 0.00485667 to 0.00485667
Heightened Def Con from 0.00485886 to 0.00485886
Heightened Def Con from 0.0048616 to 0.0048616
Heightened Def Con from 0.0048616 to 0.0048616
Heightened Def Con from 0.0048638 to 0.0048638
Heightened Def Con from 0.00486652 to 0.00486652
Heightened Def Con from 0.00486653 to 0.00486653
Heightened Def Con from 0.00486874 to 0.00486874
Heightened Def Con from 0.00486874 to 0.00486876
Heightened Def Con from 0.00487145 to 0.00487145
Heightened Def Con from 0.00487145 to 0.00487145
Heightened Def Con from 0.00487367 to 0.00487367
Heightened Def Con from 0.00487638 to 0.00487638
Heightened Def Con from 0.00487638 to 0.00487638
Heightened Def Con from 0.00487861 to 0.00487861
Heightened Def Con from 0.00488131 to 0.00488131
Heightened Def Con from 0.00488131 to 0.00488131
Heightened Def Con from 0.00488354 to 0.00488354
Heightened Def Con from 0.00488624 to 0.00488624
Heightened Def Con from 0.00488848 to 0.00488848
Heightened Def Con from 0.00488848 to 0.0048885
Heightened Def Con from 0.00489117 to 0.00489117
Heightened Def Con from 0.00489117 to 0.00489117
Heightened Def Con from 0.00489341 to 0.00489342
Heightened Def Con from 0.0048961 to 0.0048961
Heightened Def Con from 0.00489835 to 0.00489835
Heightened Def Con from 0.00490102 to 0.00490102
Heightened Def Con from 0.00490329 to 0.00490329
Heightened Def Con from 0.00490329 to 0.00490331
Heightened Def Con from 0.00490595 to 0.00490595
Heightened Def Con from 0.00490595 to 0.00490595
Heightened Def Con from 0.00490822 to 0.00490822
Heightened Def Con from 0.00490823 to 0.00490825
Heightened Def Con from 0.00491088 to 0.00491088
Heightened Def Con from 0.00491316 to 0.00491316
Heightened Def Con from 0.0049158 to 0.0049158
Heightened Def Con from 0.0049181 to 0.0049181
Heightened Def Con from 0.00492074 to 0.00492074
Heightened Def Con from 0.00492074 to 0.00492076
Heightened Def Con from 0.00492303 to 0.00492303
Heightened Def Con from 0.00492304 to 0.00492306
Heightened Def Con from 0.00492566 to 0.00492566
Heightened Def Con from 0.00492566 to 0.00492566
Heightened Def Con from 0.00492797 to 0.00492797
Heightened Def Con from 0.00493059 to 0.00493059
Heightened Def Con from 0.00493059 to 0.00493061
Heightened Def Con from 0.00493291 to 0.00493291
Heightened Def Con from 0.00493551 to 0.00493552
Heightened Def Con from 0.00493784 to 0.00493784
Heightened Def Con from 0.00493784 to 0.00493786
Heightened Def Con from 0.00494044 to 0.00494044
Heightened Def Con from 0.00494044 to 0.00494047
Heightened Def Con from 0.00494278 to 0.00494278
Heightened Def Con from 0.00494278 to 0.0049428
Heightened Def Con from 0.00494537 to 0.00494537
Heightened Def Con from 0.00494537 to 0.00494539
Heightened Def Con from 0.00494772 to 0.00494772
Heightened Def Con from 0.0049503 to 0.0049503
Heightened Def Con from 0.0049503 to 0.00495032
Heightened Def Con from 0.00495265 to 0.00495265
Heightened Def Con from 0.00495265 to 0.00495268
Heightened Def Con from 0.00495522 to 0.00495522
Heightened Def Con from 0.00495522 to 0.00495524
Heightened Def Con from 0.00495759 to 0.00495759
Heightened Def Con from 0.00495759 to 0.00495761
Heightened Def Con from 0.00496015 to 0.00496015
Heightened Def Con from 0.00496253 to 0.00496253
Heightened Def Con from 0.00496508 to 0.00496508
Heightened Def Con from 0.00496746 to 0.00496747
Heightened Def Con from 0.00496747 to 0.00496749
Heightened Def Con from 0.00497001 to 0.00497001
Heightened Def Con from 0.0049724 to 0.0049724
Heightened Def Con from 0.00497493 to 0.00497493
Heightened Def Con from 0.00497493 to 0.00497495
Heightened Def Con from 0.00497734 to 0.00497734
Heightened Def Con from 0.00497986 to 0.00497986
Heightened Def Con from 0.00497986 to 0.00497988
Heightened Def Con from 0.00498228 to 0.00498228
Heightened Def Con from 0.00498228 to 0.0049823
Heightened Def Con from 0.00498479 to 0.00498479
Heightened Def Con from 0.00498479 to 0.00498481
Heightened Def Con from 0.00498721 to 0.00498721
Heightened Def Con from 0.00498971 to 0.00498971
Heightened Def Con from 0.00498971 to 0.00498973
Heightened Def Con from 0.00499215 to 0.00499215
Heightened Def Con from 0.00499215 to 0.00499217
Heightened Def Con from 0.00499464 to 0.00499464
Heightened Def Con from 0.00499464 to 0.00499466
Heightened Def Con from 0.00499709 to 0.00499709
Heightened Def Con from 0.00499709 to 0.00499711
Heightened Def Con from 0.00499956 to 0.00499956
N-Period=1
Fourier components of V(vo)
DC component:-0.143535

Harmonic	Frequency	 Fourier 	Normalized	 Phase  	Normalized
 Number 	  [Hz]   	Component	 Component	[degree]	Phase [deg]
    1   	1.000e+03	3.954e+00	1.000e+00	   -1.40°	    0.00°
    2   	2.000e+03	6.772e-03	1.713e-03	  100.55°	  101.95°
    3   	3.000e+03	7.930e-03	2.006e-03	   66.60°	   67.99°
    4   	4.000e+03	3.524e-03	8.912e-04	  120.54°	  121.94°
    5   	5.000e+03	5.060e-03	1.280e-03	  102.60°	  104.00°
    6   	6.000e+03	5.464e-03	1.382e-03	  108.96°	  110.35°
    7   	7.000e+03	5.941e-03	1.502e-03	  100.03°	  101.43°
    8   	8.000e+03	7.090e-03	1.793e-03	  101.72°	  103.12°
    9   	9.000e+03	4.599e-03	1.163e-03	   94.00°	   95.40°
Total Harmonic Distortion: 0.425686%(59.921304%)



Date: Sun Mar 01 23:31:01 2020
Total elapsed time: 1631.816 seconds.

tnom = 27
temp = 27
method = modified trap
totiter = 11254887
traniter = 11254887
tranpoints = 3523766
accept = 2627191
rejected = 899174
matrix size = 370
fillins = 553
solver = Alternate
Thread vector: 117.6/63.1[5] 30.8/20.3[5] 20.9/9.4[5] 6.3/5.1[3]  2592/500
Matrix Compiler1: 63.97 KB object code size  25.1/17.6/[9.6]
Matrix Compiler2: 42.55 KB object code size  12.1/15.3/[6.2]

