Circuit: * C:\Users\Ema\Desktop\DCE\DISTORSION\Distorsion_1k.asc

Questionable use of curly braces in "b§e_abmgate yint 0 v={if(v(a)>{{vthresh}},{{vss}},{{vdd}})}"
    Error: undefined symbol in: "if([v](a)>((vthresh)),((vss)),((vdd)))"
Questionable use of curly braces in "b§e_abmgate yint 0 v={if(v(a)>{{vthresh}}&v(b)>{{vthresh}},{{vdd}},{{vss}})}"
    Error: undefined symbol in: "if([v](a)>((vthresh))&v(b)>((vthresh)),((vdd)),((vss)))"
Questionable use of curly braces in "b§e_abmgate yint 0 v={if(v(a)>{{vthresh}}&v(b)>{{vthresh}},{{vdd}},{{vss}})}"
    Error: undefined symbol in: "if([v](a)>((vthresh))&v(b)>((vthresh)),((vdd)),((vss)))"
Questionable use of curly braces in "b§e_abmgate yint 0 v={if(v(a)>{{vthresh}},{{vss}},{{vdd}})}"
    Error: undefined symbol in: "if([v](a)>((vthresh)),((vss)),((vdd)))"
Questionable use of curly braces in "b§e_abmgate yint 0 v={if(v(a)>{{vthresh}}&v(b)>{{vthresh}},{{vdd}},{{vss}})}"
    Error: undefined symbol in: "if([v](a)>((vthresh))&v(b)>((vthresh)),((vdd)),((vss)))"
Questionable use of curly braces in "b§e_abmgate yint 0 v={if(v(a)>{{vthresh}},{{vss}},{{vdd}})}"
    Error: undefined symbol in: "if([v](a)>((vthresh)),((vss)),((vdd)))"
WARNING: Less than two connections to node NC_03.  This node is used by V:U4:_V11.
WARNING: Less than two connections to node NC_02.  This node is used by V:U4:_V12.
WARNING: Less than two connections to node NC_01.  This node is used by V:U4:_V13.
WARNING: Less than two connections to node NC_04.  This node is used by V:U4:_V14.
WARNING: Less than two connections to node -15V.  This node is used by V6.
Instance "m:u4:_m12:1": Length shorter than recommended for a level 1 MOSFET.
Instance "m:u4:_m14:1": Length shorter than recommended for a level 1 MOSFET.
Instance "m:u4:_m15:1": Length shorter than recommended for a level 1 MOSFET.
Instance "m:u4:_m13:1": Length shorter than recommended for a level 1 MOSFET.
Instance "m:m2:2": Length shorter than recommended for a level 3 MOSFET.
Instance "m:m2:1": Length shorter than recommended for a level 3 MOSFET.
Instance "m:m1:2": Length shorter than recommended for a level 3 MOSFET.
Instance "m:m1:1": Length shorter than recommended for a level 3 MOSFET.
Per .tran options, skipping operating point for transient analysis.
Ignoring empty pin current: Ix(u4:vcci_1)
Changing Tseed to 4.88281e-010
Changing Tseed to 4.88281e-012
Changing Tseed to 4.88281e-009
Changing Tseed to 4.88281e-013
Changing Tseed to 4.88281e-008
Changing Tseed to 4.88281e-014
Changing Tseed to 4.88281e-007
Changing Tseed to 4.88281e-015
Changing Tseed to 4.88281e-006
Changing Tseed to 4.88281e-016
Changing Tseed to 4.88281e-005
Changing Tseed to 4.88281e-017
Heightened Def Con from 0 Changing Tseed to 1e-009
Changing Tseed to 1e-011
Changing Tseed to 1e-008
Changing Tseed to 1e-012
Changing Tseed to 1e-007
Changing Tseed to 1e-013
Changing Tseed to 1e-006
Changing Tseed to 1e-014
Changing Tseed to 1e-005
Changing Tseed to 1e-015
Changing Tseed to 0.0001
Changing Tseed to 1e-016
+Changing Tseed to 1e-009
Changing Tseed to 1e-011
Changing Tseed to 1e-008
Changing Tseed to 1e-012
Changing Tseed to 1e-007
Changing Tseed to 1e-013
Changing Tseed to 1e-006
Changing Tseed to 1e-014
Changing Tseed to 1e-005
Changing Tseed to 1e-015
Changing Tseed to 0.0001
Changing Tseed to 1e-016
+Changing Tseed to 1e-009
Changing Tseed to 1e-011
Changing Tseed to 1e-008
Changing Tseed to 1e-012
Changing Tseed to 1e-007
Changing Tseed to 1e-013
Changing Tseed to 1e-006
Changing Tseed to 1e-014
Changing Tseed to 1e-005
Changing Tseed to 1e-015
Changing Tseed to 0.0001
Changing Tseed to 1e-016
+Changing Tseed to 1e-009
Changing Tseed to 1e-011
Changing Tseed to 1e-008
Changing Tseed to 1e-012
Changing Tseed to 1e-007
Changing Tseed to 1e-013
Changing Tseed to 1e-006
Changing Tseed to 1e-014
Changing Tseed to 1e-005
Changing Tseed to 1e-015
Changing Tseed to 0.0001
Changing Tseed to 1e-016
+Changing Tseed to 1e-009
Changing Tseed to 1e-011
Changing Tseed to 1e-008
Changing Tseed to 1e-012
Changing Tseed to 1e-007
Changing Tseed to 1e-013
Changing Tseed to 1e-006
Changing Tseed to 1e-014
Changing Tseed to 1e-005
Changing Tseed to 1e-015
Changing Tseed to 0.0001
Changing Tseed to 1e-016
+Changing Tseed to 1e-009
Changing Tseed to 1e-011
Changing Tseed to 1e-008
Changing Tseed to 1e-012
Changing Tseed to 1e-007
Changing Tseed to 1e-013
Changing Tseed to 1e-006
Changing Tseed to 1e-014
Changing Tseed to 1e-005
Changing Tseed to 1e-015
Changing Tseed to 0.0001
Changing Tseed to 1e-016
+Changing Tseed to 1e-009
Changing Tseed to 1e-011
Changing Tseed to 1e-008
Changing Tseed to 1e-012
Changing Tseed to 1e-007
Changing Tseed to 1e-013
Changing Tseed to 1e-006
Changing Tseed to 1e-014
Changing Tseed to 1e-005
Changing Tseed to 1e-015
Changing Tseed to 0.0001
Changing Tseed to 1e-016
+Changing Tseed to 1e-009
Changing Tseed to 1e-011
Changing Tseed to 1e-008
Changing Tseed to 1e-012
Changing Tseed to 1e-007
Changing Tseed to 1e-013
Changing Tseed to 1e-006
Changing Tseed to 1e-014
Changing Tseed to 1e-005
Changing Tseed to 1e-015
Changing Tseed to 0.0001
Changing Tseed to 1e-016
+Changing Tseed to 1e-009
Changing Tseed to 1e-011
Changing Tseed to 1e-008
Changing Tseed to 1e-012
Changing Tseed to 1e-007
Changing Tseed to 1e-013
Changing Tseed to 1e-006
Changing Tseed to 1e-014
Changing Tseed to 1e-005
Changing Tseed to 1e-015
Changing Tseed to 0.0001
Changing Tseed to 1e-016
+Changing Tseed to 1e-009
Changing Tseed to 1e-011
Changing Tseed to 1e-008
Changing Tseed to 1e-012
Changing Tseed to 1e-007
Changing Tseed to 1e-013
Changing Tseed to 1e-006
Changing Tseed to 1e-014
Changing Tseed to 1e-005
Changing Tseed to 1e-015
Changing Tseed to 0.0001
Changing Tseed to 1e-016
+Changing Tseed to 1e-009
Changing Tseed to 1e-011
Changing Tseed to 1e-008
Changing Tseed to 1e-012
Changing Tseed to 1e-007
Changing Tseed to 1e-013
Changing Tseed to 1e-006
Changing Tseed to 1e-014
Changing Tseed to 1e-005
Changing Tseed to 1e-015
Changing Tseed to 0.0001
Changing Tseed to 1e-016
+Changing Tseed to 1e-009
Changing Tseed to 1e-011
Changing Tseed to 1e-008
Changing Tseed to 1e-012
Changing Tseed to 1e-007
Changing Tseed to 1e-013
Changing Tseed to 1e-006
Changing Tseed to 1e-014
Changing Tseed to 1e-005
Changing Tseed to 1e-015
Changing Tseed to 0.0001
Changing Tseed to 1e-016
+Changing Tseed to 1e-009
Changing Tseed to 1e-011
Changing Tseed to 1e-008
Changing Tseed to 1e-012
Changing Tseed to 1e-007
Changing Tseed to 1e-013
Changing Tseed to 1e-006
Changing Tseed to 1e-014
Changing Tseed to 1e-005
Changing Tseed to 1e-015
Changing Tseed to 0.0001
Changing Tseed to 1e-016
+Changing Tseed to 1e-009
Changing Tseed to 1e-011
Changing Tseed to 1e-008
Changing Tseed to 1e-012
Changing Tseed to 1e-007
Changing Tseed to 1e-013
Changing Tseed to 1e-006
Changing Tseed to 1e-014
Changing Tseed to 1e-005
Changing Tseed to 1e-015
Changing Tseed to 0.0001
Changing Tseed to 1e-016
+Changing Tseed to 1e-009
Changing Tseed to 1e-011
Changing Tseed to 1e-008
Changing Tseed to 1e-012
Changing Tseed to 1e-007
Changing Tseed to 1e-013
Changing Tseed to 1e-006
Changing Tseed to 1e-014
Changing Tseed to 1e-005
Changing Tseed to 1e-015
Changing Tseed to 0.0001
Changing Tseed to 1e-016
+Changing Tseed to 1e-009
Changing Tseed to 1e-011
Changing Tseed to 1e-008
Changing Tseed to 1e-012
Changing Tseed to 1e-007
Changing Tseed to 1e-013
Changing Tseed to 1e-006
Changing Tseed to 1e-014
Changing Tseed to 1e-005
Changing Tseed to 1e-015
Changing Tseed to 0.0001
Changing Tseed to 1e-016
+Changing Tseed to 1e-009
Changing Tseed to 1e-011
Changing Tseed to 1e-008
Changing Tseed to 1e-012
Changing Tseed to 1e-007
Changing Tseed to 1e-013
Changing Tseed to 1e-006
Changing Tseed to 1e-014
Changing Tseed to 1e-005
Changing Tseed to 1e-015
Changing Tseed to 0.0001
Changing Tseed to 1e-016
+Changing Tseed to 1e-009
Changing Tseed to 1e-011
Changing Tseed to 1e-008
Changing Tseed to 1e-012
Changing Tseed to 1e-007
Changing Tseed to 1e-013
Changing Tseed to 1e-006
Changing Tseed to 1e-014
Changing Tseed to 1e-005
Changing Tseed to 1e-015
Changing Tseed to 0.0001
Changing Tseed to 1e-016
+Changing Tseed to 1e-009
Changing Tseed to 1e-011
Changing Tseed to 1e-008
Changing Tseed to 1e-012
Changing Tseed to 1e-007
Changing Tseed to 1e-013
Changing Tseed to 1e-006
Changing Tseed to 1e-014
Changing Tseed to 1e-005
Changing Tseed to 1e-015
Changing Tseed to 0.0001
Changing Tseed to 1e-016
+Changing Tseed to 1e-009
Changing Tseed to 1e-011
Changing Tseed to 1e-008
Changing Tseed to 1e-012
Changing Tseed to 1e-007
Changing Tseed to 1e-013
Changing Tseed to 1e-006
Changing Tseed to 1e-014
Changing Tseed to 1e-005
Changing Tseed to 1e-015
Changing Tseed to 0.0001
Changing Tseed to 1e-016
+Changing Tseed to 1e-009
Changing Tseed to 1e-011
Changing Tseed to 1e-008
Changing Tseed to 1e-012
Changing Tseed to 1e-007
Changing Tseed to 1e-013
Changing Tseed to 1e-006
Changing Tseed to 1e-014
Changing Tseed to 1e-005
Changing Tseed to 1e-015
Changing Tseed to 0.0001
Changing Tseed to 1e-016
+Changing Tseed to 1e-009
Changing Tseed to 1e-011
Changing Tseed to 1e-008
Changing Tseed to 1e-012
Changing Tseed to 1e-007
Changing Tseed to 1e-013
Changing Tseed to 1e-006
Changing Tseed to 1e-014
Changing Tseed to 1e-005
Changing Tseed to 1e-015
Changing Tseed to 0.0001
Changing Tseed to 1e-016
+Changing Tseed to 1e-009
Changing Tseed to 1e-011
Changing Tseed to 1e-008
Changing Tseed to 1e-012
Changing Tseed to 1e-007
Changing Tseed to 1e-013
Changing Tseed to 1e-006
Changing Tseed to 1e-014
Changing Tseed to 1e-005
Changing Tseed to 1e-015
Changing Tseed to 0.0001
Changing Tseed to 1e-016
+Changing Tseed to 1e-009
Changing Tseed to 1e-011
Changing Tseed to 1e-008
Changing Tseed to 1e-012
Changing Tseed to 1e-007
Changing Tseed to 1e-013
Changing Tseed to 1e-006
Changing Tseed to 1e-014
Changing Tseed to 1e-005
Changing Tseed to 1e-015
Changing Tseed to 0.0001
Changing Tseed to 1e-016
+Changing Tseed to 1e-009
Changing Tseed to 1e-011
Changing Tseed to 1e-008
Changing Tseed to 1e-012
Changing Tseed to 1e-007
Changing Tseed to 1e-013
Changing Tseed to 1e-006
Changing Tseed to 1e-014
Changing Tseed to 1e-005
Changing Tseed to 1e-015
Changing Tseed to 0.0001
Changing Tseed to 1e-016
+Changing Tseed to 1e-009
Changing Tseed to 1e-011
Changing Tseed to 1e-008
Changing Tseed to 1e-012
Changing Tseed to 1e-007
Changing Tseed to 1e-013
Changing Tseed to 1e-006
Changing Tseed to 1e-014
Changing Tseed to 1e-005
Changing Tseed to 1e-015
Changing Tseed to 0.0001
Changing Tseed to 1e-016
+Changing Tseed to 1e-009
Changing Tseed to 1e-011
Changing Tseed to 1e-008
Changing Tseed to 1e-012
Changing Tseed to 1e-007
Changing Tseed to 1e-013
Changing Tseed to 1e-006
Changing Tseed to 1e-014
Changing Tseed to 1e-005
Changing Tseed to 1e-015
Changing Tseed to 0.0001
Changing Tseed to 1e-016
+Changing Tseed to 1e-009
Changing Tseed to 1e-011
Changing Tseed to 1e-008
Changing Tseed to 1e-012
Changing Tseed to 1e-007
Changing Tseed to 1e-013
Changing Tseed to 1e-006
Changing Tseed to 1e-014
Changing Tseed to 1e-005
Changing Tseed to 1e-015
Changing Tseed to 0.0001
Changing Tseed to 1e-016
+Changing Tseed to 1e-009
Changing Tseed to 1e-011
Changing Tseed to 1e-008
Changing Tseed to 1e-012
Changing Tseed to 1e-007
Changing Tseed to 1e-013
Changing Tseed to 1e-006
Changing Tseed to 1e-014
Changing Tseed to 1e-005
Changing Tseed to 1e-015
Changing Tseed to 0.0001
Changing Tseed to 1e-016
+Changing Tseed to 1e-009
Changing Tseed to 1e-011
Changing Tseed to 1e-008
Changing Tseed to 1e-012
Changing Tseed to 1e-007
Changing Tseed to 1e-013
Changing Tseed to 1e-006
Changing Tseed to 1e-014
Changing Tseed to 1e-005
Changing Tseed to 1e-015
Changing Tseed to 0.0001
Changing Tseed to 1e-016
+Changing Tseed to 1e-009
Changing Tseed to 1e-011
Changing Tseed to 1e-008
Changing Tseed to 1e-012
Changing Tseed to 1e-007
Changing Tseed to 1e-013
Changing Tseed to 1e-006
Changing Tseed to 1e-014
Changing Tseed to 1e-005
Changing Tseed to 1e-015
Changing Tseed to 0.0001
Changing Tseed to 1e-016
+Changing Tseed to 1e-009
Changing Tseed to 1e-011
Changing Tseed to 1e-008
Changing Tseed to 1e-012
Changing Tseed to 1e-007
Changing Tseed to 1e-013
Changing Tseed to 1e-006
Changing Tseed to 1e-014
Changing Tseed to 1e-005
Changing Tseed to 1e-015
Changing Tseed to 0.0001
Changing Tseed to 1e-016
+Changing Tseed to 1e-009
Changing Tseed to 1e-011
Changing Tseed to 1e-008
Changing Tseed to 1e-012
Changing Tseed to 1e-007
Changing Tseed to 1e-013
Changing Tseed to 1e-006
Changing Tseed to 1e-014
Changing Tseed to 1e-005
Changing Tseed to 1e-015
Changing Tseed to 0.0001
Changing Tseed to 1e-016
+Changing Tseed to 1e-009
Changing Tseed to 1e-011
Changing Tseed to 1e-008
Changing Tseed to 1e-012
Changing Tseed to 1e-007
Changing Tseed to 1e-013
Changing Tseed to 1e-006
Changing Tseed to 1e-014
Changing Tseed to 1e-005
Changing Tseed to 1e-015
Changing Tseed to 0.0001
Changing Tseed to 1e-016
+Changing Tseed to 1e-009
Changing Tseed to 1e-011
Changing Tseed to 1e-008
Changing Tseed to 1e-012
Changing Tseed to 1e-007
Changing Tseed to 1e-013
Changing Tseed to 1e-006
Changing Tseed to 1e-014
Changing Tseed to 1e-005
Changing Tseed to 1e-015
Changing Tseed to 0.0001
Changing Tseed to 1e-016
+Changing Tseed to 1e-009
Changing Tseed to 1e-011
to 1.125e-011
Heightened Def Con from 1.125e-011 +++++++++++++++++++++++++++to 2.26125e-009
Heightened Def Con from 2.26125e-009 +++++++++++++++++++to 2.26394e-009
Heightened Def Con from 2.26394e-009 +++++++++++++++to 2.26398e-009
Heightened Def Con from 5.02401e-005 to 5.02402e-005
Heightened Def Con from 6.01699e-005 to 6.017e-005
Heightened Def Con from 6.18098e-005 to 6.1815e-005
Heightened Def Con from 6.51334e-005 to 6.51335e-005
Heightened Def Con from 7.00966e-005 to 7.00967e-005
Heightened Def Con from 7.50593e-005 to 7.50595e-005
Heightened Def Con from 8.00224e-005 to 8.00225e-005
Heightened Def Con from 8.13984e-005 to 8.14064e-005
Heightened Def Con from 8.4984e-005 to 8.49841e-005
Heightened Def Con from 8.99453e-005 to 8.99455e-005
Heightened Def Con from 9.11962e-005 to 9.12042e-005
Heightened Def Con from 9.49065e-005 to 9.49066e-005
Heightened Def Con from 9.98672e-005 to 9.98673e-005
Heightened Def Con from 0.000104826 to 0.000104827
Heightened Def Con from 0.000105901 to 0.000105908
Heightened Def Con from 0.000109785 to 0.000109786
Heightened Def Con from 0.0001108 to 0.000110808
Heightened Def Con from 0.000114744 to 0.000114744
Heightened Def Con from 0.000119703 to 0.000119703
Heightened Def Con from 0.000124659 to 0.000124659
Heightened Def Con from 0.000125518 to 0.000125522
Heightened Def Con from 0.000129615 to 0.000129615
Heightened Def Con from 0.000130421 to 0.000130426
Heightened Def Con from 0.000134571 to 0.000134571
Heightened Def Con from 0.000139524 to 0.000139525
Heightened Def Con from 0.000144478 to 0.000144479
Heightened Def Con from 0.000149431 to 0.000149431
Heightened Def Con from 0.000150064 to 0.00015008
Heightened Def Con from 0.000154383 to 0.000154383
Heightened Def Con from 0.000155321 to 0.000155322
Heightened Def Con from 0.000159331 to 0.000159334
Heightened Def Con from 0.000159334 to 0.000159334
Heightened Def Con from 0.000159858 to 0.000159858
Heightened Def Con from 0.000159871 to 0.000159876
Heightened Def Con from 0.000164284 to 0.000164284
Heightened Def Con from 0.00016477 to 0.00016477
Heightened Def Con from 0.000164782 to 0.000164787
Heightened Def Con from 0.000169234 to 0.000169234
Heightened Def Con from 0.000169682 to 0.000169682
Heightened Def Con from 0.000169694 to 0.000169699
Heightened Def Con from 0.000174182 to 0.000174182
Heightened Def Con from 0.000174597 to 0.000174597
Heightened Def Con from 0.000174609 to 0.000174614
Heightened Def Con from 0.00017913 to 0.00017913
Heightened Def Con from 0.000179512 to 0.000179513
Heightened Def Con from 0.000179525 to 0.00017953
Heightened Def Con from 0.000184076 to 0.000184076
Heightened Def Con from 0.000184425 to 0.000184425
Heightened Def Con from 0.000184437 to 0.000184442
Heightened Def Con from 0.000188995 to 0.000188996
Heightened Def Con from 0.000189017 to 0.00018902
Heightened Def Con from 0.000189021 to 0.000189022
Heightened Def Con from 0.000189342 to 0.000189342
Heightened Def Con from 0.000189354 to 0.000189359
Heightened Def Con from 0.000193966 to 0.000193966
Heightened Def Con from 0.000194258 to 0.000194258
Heightened Def Con from 0.00019427 to 0.000194275
Heightened Def Con from 0.000198909 to 0.00019891
Heightened Def Con from 0.000199178 to 0.000199179
Heightened Def Con from 0.000199191 to 0.000199196
Heightened Def Con from 0.000203848 to 0.000203851
Heightened Def Con from 0.000203852 to 0.000203852
Heightened Def Con from 0.000204099 to 0.000204099
Heightened Def Con from 0.000208767 to 0.000208791
Heightened Def Con from 0.000208793 to 0.000208793
Heightened Def Con from 0.000209019 to 0.000209019
Heightened Def Con from 0.000209031 to 0.000209036
Heightened Def Con from 0.000213734 to 0.000213734
Heightened Def Con from 0.000213946 to 0.000213947
Heightened Def Con from 0.000213959 to 0.000213964
Heightened Def Con from 0.000218674 to 0.000218674
Heightened Def Con from 0.00021887 to 0.00021887
Heightened Def Con from 0.000218882 to 0.000218887
Heightened Def Con from 0.000223613 to 0.000223613
Heightened Def Con from 0.000223793 to 0.000223794
Heightened Def Con from 0.000223806 to 0.000223811
Heightened Def Con from 0.000228546 to 0.000228549
Heightened Def Con from 0.00022855 to 0.00022855
Heightened Def Con from 0.000228718 to 0.000228718
Heightened Def Con from 0.00022873 to 0.000228735
Heightened Def Con from 0.000233488 to 0.000233488
Heightened Def Con from 0.000233645 to 0.000233645
Heightened Def Con from 0.000233657 to 0.000233662
Heightened Def Con from 0.000238423 to 0.000238423
Heightened Def Con from 0.000238572 to 0.000238572
Heightened Def Con from 0.000238584 to 0.000238589
Heightened Def Con from 0.000243353 to 0.000243356
Heightened Def Con from 0.000243357 to 0.000243357
Heightened Def Con from 0.000243501 to 0.000243501
Heightened Def Con from 0.000243513 to 0.000243518
Heightened Def Con from 0.000248287 to 0.00024829
Heightened Def Con from 0.000248291 to 0.000248291
Heightened Def Con from 0.000248432 to 0.000248432
Heightened Def Con from 0.000248444 to 0.000248449
Heightened Def Con from 0.00025322 to 0.000253223
Heightened Def Con from 0.000253224 to 0.000253224
Heightened Def Con from 0.000253363 to 0.000253363
Heightened Def Con from 0.000253375 to 0.00025338
Heightened Def Con from 0.000258154 to 0.000258154
Heightened Def Con from 0.000258299 to 0.000258299
Heightened Def Con from 0.000258311 to 0.000258316
Heightened Def Con from 0.000263084 to 0.000263084
Heightened Def Con from 0.000263234 to 0.000263234
Heightened Def Con from 0.000263246 to 0.000263251
Heightened Def Con from 0.000268014 to 0.000268014
Heightened Def Con from 0.000268173 to 0.000268173
Heightened Def Con from 0.000268185 to 0.00026819
Heightened Def Con from 0.000272941 to 0.000272941
Heightened Def Con from 0.000273109 to 0.000273109
Heightened Def Con from 0.000273121 to 0.000273126
Heightened Def Con from 0.000277864 to 0.000277867
Heightened Def Con from 0.000277868 to 0.000277868
Heightened Def Con from 0.00027805 to 0.00027805
Heightened Def Con from 0.000278062 to 0.000278067
Heightened Def Con from 0.00028279 to 0.000282793
Heightened Def Con from 0.000282794 to 0.000282794
Heightened Def Con from 0.00028299 to 0.00028299
Heightened Def Con from 0.000283002 to 0.000283007
Heightened Def Con from 0.000287714 to 0.000287717
Heightened Def Con from 0.000287718 to 0.000287718
Heightened Def Con from 0.000287932 to 0.000287932
Heightened Def Con from 0.000287944 to 0.000287949
Heightened Def Con from 0.000292639 to 0.000292642
Heightened Def Con from 0.000292643 to 0.000292643
Heightened Def Con from 0.000292874 to 0.000292875
Heightened Def Con from 0.000292887 to 0.000292892
Heightened Def Con from 0.000297565 to 0.000297565
Heightened Def Con from 0.000297823 to 0.000297823
Heightened Def Con from 0.000297835 to 0.00029784
Heightened Def Con from 0.000302483 to 0.000302486
Heightened Def Con from 0.000302487 to 0.000302487
Heightened Def Con from 0.000302767 to 0.000302767
Heightened Def Con from 0.000302779 to 0.000302784
Heightened Def Con from 0.000307409 to 0.000307409
Heightened Def Con from 0.000307709 to 0.000307709
Heightened Def Con from 0.000307721 to 0.000307726
Heightened Def Con from 0.000312329 to 0.00031233
Heightened Def Con from 0.000312658 to 0.000312658
Heightened Def Con from 0.00031267 to 0.000312675
Heightened Def Con from 0.000317248 to 0.000317248
Heightened Def Con from 0.000317606 to 0.000317606
Heightened Def Con from 0.000317618 to 0.000317623
Heightened Def Con from 0.000322166 to 0.000322166
Heightened Def Con from 0.000322552 to 0.000322552
Heightened Def Con from 0.000322564 to 0.000322569
Heightened Def Con from 0.000327084 to 0.000327084
Heightened Def Con from 0.000327507 to 0.000327507
Heightened Def Con from 0.000327519 to 0.000327524
Heightened Def Con from 0.000331996 to 0.000331999
Heightened Def Con from 0.000332 to 0.000332
Heightened Def Con from 0.00033245 to 0.00033245
Heightened Def Con from 0.000332462 to 0.000332467
Heightened Def Con from 0.000336908 to 0.000336911
Heightened Def Con from 0.000336912 to 0.000336912
Heightened Def Con from 0.000337405 to 0.000337405
Heightened Def Con from 0.000337418 to 0.000337423
Heightened Def Con from 0.000341822 to 0.000341825
Heightened Def Con from 0.000341825 to 0.000341826
Heightened Def Con from 0.000342357 to 0.000342357
Heightened Def Con from 0.000342369 to 0.000342374
Heightened Def Con from 0.000346713 to 0.000346737
Heightened Def Con from 0.000346738 to 0.000346739
Heightened Def Con from 0.00034731 to 0.00034731
Heightened Def Con from 0.000347322 to 0.000347327
Heightened Def Con from 0.000351651 to 0.000351651
Heightened Def Con from 0.000352265 to 0.000352266
Heightened Def Con from 0.000352277 to 0.000352282
Heightened Def Con from 0.00035656 to 0.000356563
Heightened Def Con from 0.000356564 to 0.000356564
Heightened Def Con from 0.000357227 to 0.000357227
Heightened Def Con from 0.000357239 to 0.000357244
Heightened Def Con from 0.000361474 to 0.000361474
Heightened Def Con from 0.000362181 to 0.000362181
Heightened Def Con from 0.000362193 to 0.000362198
Heightened Def Con from 0.000366385 to 0.000366385
Heightened Def Con from 0.000367139 to 0.000367139
Heightened Def Con from 0.000367151 to 0.000367156
Heightened Def Con from 0.00037129 to 0.000371293
Heightened Def Con from 0.000371294 to 0.000371294
Heightened Def Con from 0.000372095 to 0.000372095
Heightened Def Con from 0.000372107 to 0.000372112
Heightened Def Con from 0.000376202 to 0.000376202
Heightened Def Con from 0.000377055 to 0.000377055
Heightened Def Con from 0.000377067 to 0.000377072
Heightened Def Con from 0.000381108 to 0.00038111
Heightened Def Con from 0.000381111 to 0.000381111
Heightened Def Con from 0.000382015 to 0.000382015
Heightened Def Con from 0.000382027 to 0.000382032
Heightened Def Con from 0.000386019 to 0.000386019
Heightened Def Con from 0.000386977 to 0.000386977
Heightened Def Con from 0.000386989 to 0.000386994
Heightened Def Con from 0.000390925 to 0.000390925
Heightened Def Con from 0.000391944 to 0.000391944
Heightened Def Con from 0.000391956 to 0.000391966
Heightened Def Con from 0.000395827 to 0.000395829
Heightened Def Con from 0.000395831 to 0.000395831
Heightened Def Con from 0.000396903 to 0.000396903
Heightened Def Con from 0.000396915 to 0.000396924
Heightened Def Con from 0.000400733 to 0.000400735
Heightened Def Con from 0.000400736 to 0.000400737
Heightened Def Con from 0.000401872 to 0.000401872
Heightened Def Con from 0.000401884 to 0.000401894
Heightened Def Con from 0.000405641 to 0.000405641
Heightened Def Con from 0.000406835 to 0.000406835
Heightened Def Con from 0.000406847 to 0.000406857
Heightened Def Con from 0.000410542 to 0.000410544
Heightened Def Con from 0.000410545 to 0.000410545
Heightened Def Con from 0.000411796 to 0.000411796
Heightened Def Con from 0.000411808 to 0.000411818
Heightened Def Con from 0.000415445 to 0.000415447
Heightened Def Con from 0.000415448 to 0.000415449
Heightened Def Con from 0.000416759 to 0.000416763
Heightened Def Con from 0.000416763 to 0.000416764
Heightened Def Con from 0.000416775 to 0.000416785
Heightened Def Con from 0.000420352 to 0.000420352
Heightened Def Con from 0.000421729 to 0.000421733
Heightened Def Con from 0.000421734 to 0.000421734
Heightened Def Con from 0.000421746 to 0.000421756
Heightened Def Con from 0.000425254 to 0.000425254
Heightened Def Con from 0.00042669 to 0.000426694
Heightened Def Con from 0.000426695 to 0.000426695
Heightened Def Con from 0.000426707 to 0.000426717
Heightened Def Con from 0.000430153 to 0.000430155
Heightened Def Con from 0.000430157 to 0.000430157
Heightened Def Con from 0.000431664 to 0.000431667
Heightened Def Con from 0.000431668 to 0.000431668
Heightened Def Con from 0.000431679 to 0.000431689
Heightened Def Con from 0.000435055 to 0.000435057
Heightened Def Con from 0.000435058 to 0.000435058
Heightened Def Con from 0.00043663 to 0.000436634
Heightened Def Con from 0.000436635 to 0.000436635
Heightened Def Con from 0.000436647 to 0.000436657
Heightened Def Con from 0.000439959 to 0.000439959
Heightened Def Con from 0.000441596 to 0.0004416
Heightened Def Con from 0.000441601 to 0.000441601
Heightened Def Con from 0.000444857 to 0.000444859
Heightened Def Con from 0.00044486 to 0.00044486
Heightened Def Con from 0.00044657 to 0.000446573
Heightened Def Con from 0.000446573 to 0.000446573
Heightened Def Con from 0.000449757 to 0.000449759
Heightened Def Con from 0.00044976 to 0.00044976
Heightened Def Con from 0.000451537 to 0.000451542
Heightened Def Con from 0.000451543 to 0.000451543
Heightened Def Con from 0.000454661 to 0.000454661
Heightened Def Con from 0.000456508 to 0.000456508
Heightened Def Con from 0.000459561 to 0.000459561
Heightened Def Con from 0.000461481 to 0.000461481
Heightened Def Con from 0.00046446 to 0.00046446
Heightened Def Con from 0.000466449 to 0.000466449
Heightened Def Con from 0.000469357 to 0.000469359
Heightened Def Con from 0.00046936 to 0.00046936
Heightened Def Con from 0.000471425 to 0.000471425
Heightened Def Con from 0.000474233 to 0.000474235
Heightened Def Con from 0.000474259 to 0.000474259
Heightened Def Con from 0.000476394 to 0.000476394
Heightened Def Con from 0.000479156 to 0.000479157
Heightened Def Con from 0.000479158 to 0.000479158
Heightened Def Con from 0.000481362 to 0.000481362
Heightened Def Con from 0.000484055 to 0.000484056
Heightened Def Con from 0.000484057 to 0.000484057
Heightened Def Con from 0.000486334 to 0.000486334
Heightened Def Con from 0.000488956 to 0.000488956
Heightened Def Con from 0.000491309 to 0.000491309
Heightened Def Con from 0.000493855 to 0.000493855
Heightened Def Con from 0.000493855 to 0.000493855
Heightened Def Con from 0.000496275 to 0.000496276
Heightened Def Con from 0.000496277 to 0.000496297
Heightened Def Con from 0.000498754 to 0.000498754
Heightened Def Con from 0.000501252 to 0.000501253
Heightened Def Con from 0.000503652 to 0.000503652
Heightened Def Con from 0.000503652 to 0.000503674
Heightened Def Con from 0.000506222 to 0.000506222
Heightened Def Con from 0.000506222 to 0.000506243
Heightened Def Con from 0.000508552 to 0.000508552
Heightened Def Con from 0.000508553 to 0.000508573
Heightened Def Con from 0.000511191 to 0.000511191
Heightened Def Con from 0.000511191 to 0.000511213
Heightened Def Con from 0.00051345 to 0.00051345
Heightened Def Con from 0.000513453 to 0.000513473
Heightened Def Con from 0.000516166 to 0.000516166
Heightened Def Con from 0.000516167 to 0.000516167
Heightened Def Con from 0.000518349 to 0.000518349
Heightened Def Con from 0.000518353 to 0.000518372
Heightened Def Con from 0.000521135 to 0.000521135
Heightened Def Con from 0.000521136 to 0.000521136
Heightened Def Con from 0.000523248 to 0.000523248
Heightened Def Con from 0.000526105 to 0.000526105
Heightened Def Con from 0.000528148 to 0.000528148
Heightened Def Con from 0.000531078 to 0.000531078
Heightened Def Con from 0.000533047 to 0.000533047
Heightened Def Con from 0.000536045 to 0.000536045
Heightened Def Con from 0.000537946 to 0.000537946
Heightened Def Con from 0.000541015 to 0.000541015
Heightened Def Con from 0.000542846 to 0.000542846
Heightened Def Con from 0.000545986 to 0.000545986
Heightened Def Con from 0.000547745 to 0.000547746
Heightened Def Con from 0.000550954 to 0.000550955
Heightened Def Con from 0.000550956 to 0.000550956
Heightened Def Con from 0.000552647 to 0.000552647
Heightened Def Con from 0.000555929 to 0.000555929
Heightened Def Con from 0.000557544 to 0.000557547
Heightened Def Con from 0.000557548 to 0.000557548
Heightened Def Con from 0.000557558 to 0.000557569
Heightened Def Con from 0.000560892 to 0.000560892
Heightened Def Con from 0.000562442 to 0.000562448
Heightened Def Con from 0.000562449 to 0.000562449
Heightened Def Con from 0.000562459 to 0.000562463
Heightened Def Con from 0.000565866 to 0.000565866
Heightened Def Con from 0.00056735 to 0.000567351
Heightened Def Con from 0.000567361 to 0.00056737
Heightened Def Con from 0.000570832 to 0.000570833
Heightened Def Con from 0.000572252 to 0.000572252
Heightened Def Con from 0.000572263 to 0.000572274
Heightened Def Con from 0.000575798 to 0.000575799
Heightened Def Con from 0.0005758 to 0.0005758
Heightened Def Con from 0.000577153 to 0.000577154
Heightened Def Con from 0.000577164 to 0.000577175
Heightened Def Con from 0.000580765 to 0.000580765
Heightened Def Con from 0.00058205 to 0.000582056
Heightened Def Con from 0.000582057 to 0.000582057
Heightened Def Con from 0.000582068 to 0.000582079
Heightened Def Con from 0.000585727 to 0.000585729
Heightened Def Con from 0.000585729 to 0.000585729
Heightened Def Con from 0.00058696 to 0.00058696
Heightened Def Con from 0.00058697 to 0.000586981
Heightened Def Con from 0.0005907 to 0.0005907
Heightened Def Con from 0.000591857 to 0.000591863
Heightened Def Con from 0.000591864 to 0.000591864
Heightened Def Con from 0.000591874 to 0.000591885
Heightened Def Con from 0.000595662 to 0.000595663
Heightened Def Con from 0.000595665 to 0.000595665
Heightened Def Con from 0.000596761 to 0.000596767
Heightened Def Con from 0.000596768 to 0.000596768
Heightened Def Con from 0.000596779 to 0.000596787
Heightened Def Con from 0.000600625 to 0.000600625
Heightened Def Con from 0.000601666 to 0.000601672
Heightened Def Con from 0.000601673 to 0.000601673
Heightened Def Con from 0.000601684 to 0.000601691
Heightened Def Con from 0.000605587 to 0.000605587
Heightened Def Con from 0.000606572 to 0.000606578
Heightened Def Con from 0.000606578 to 0.000606579
Heightened Def Con from 0.000606589 to 0.000606598
Heightened Def Con from 0.00061055 to 0.00061055
Heightened Def Con from 0.000611481 to 0.000611484
Heightened Def Con from 0.000611485 to 0.000611485
Heightened Def Con from 0.000611496 to 0.000611505
Heightened Def Con from 0.000615517 to 0.000615518
Heightened Def Con from 0.000616386 to 0.000616392
Heightened Def Con from 0.000616393 to 0.000616393
Heightened Def Con from 0.000616403 to 0.00061641
Heightened Def Con from 0.000620474 to 0.000620474
Heightened Def Con from 0.000621299 to 0.000621299
Heightened Def Con from 0.00062131 to 0.000621317
Heightened Def Con from 0.00062544 to 0.000625441
Heightened Def Con from 0.000626208 to 0.000626208
Heightened Def Con from 0.000626218 to 0.000626225
Heightened Def Con from 0.000630394 to 0.000630395
Heightened Def Con from 0.000630397 to 0.000630397
Heightened Def Con from 0.000631116 to 0.000631116
Heightened Def Con from 0.000631127 to 0.000631134
Heightened Def Con from 0.000635349 to 0.000635351
Heightened Def Con from 0.000635352 to 0.000635352
Heightened Def Con from 0.000636023 to 0.000636026
Heightened Def Con from 0.000636027 to 0.000636027
Heightened Def Con from 0.000636038 to 0.000636045
Heightened Def Con from 0.000640309 to 0.000640311
Heightened Def Con from 0.000640312 to 0.000640312
Heightened Def Con from 0.000640937 to 0.000640937
Heightened Def Con from 0.000640947 to 0.000640954
Heightened Def Con from 0.000645264 to 0.000645266
Heightened Def Con from 0.000645267 to 0.000645267
Heightened Def Con from 0.000645843 to 0.000645846
Heightened Def Con from 0.000645847 to 0.000645848
Heightened Def Con from 0.000645858 to 0.000645865
Heightened Def Con from 0.000650222 to 0.000650223
Heightened Def Con from 0.000650753 to 0.000650758
Heightened Def Con from 0.00065076 to 0.00065076
Heightened Def Con from 0.00065077 to 0.000650777
Heightened Def Con from 0.000655178 to 0.000655178
Heightened Def Con from 0.000655673 to 0.000655673
Heightened Def Con from 0.000655683 to 0.00065569
Heightened Def Con from 0.000660129 to 0.00066013
Heightened Def Con from 0.000660132 to 0.000660132
Heightened Def Con from 0.000660582 to 0.000660585
Heightened Def Con from 0.000660586 to 0.000660587
Heightened Def Con from 0.000660597 to 0.000660604
Heightened Def Con from 0.000665086 to 0.000665086
Heightened Def Con from 0.000665497 to 0.0006655
Heightened Def Con from 0.000665501 to 0.000665502
Heightened Def Con from 0.000665512 to 0.000665519
Heightened Def Con from 0.000670038 to 0.000670039
Heightened Def Con from 0.000670418 to 0.000670418
Heightened Def Con from 0.000670428 to 0.000670435
Heightened Def Con from 0.000674984 to 0.000674986
Heightened Def Con from 0.000674987 to 0.000674988
Heightened Def Con from 0.000675327 to 0.000675332
Heightened Def Con from 0.000675333 to 0.000675333
Heightened Def Con from 0.000675344 to 0.000675351
Heightened Def Con from 0.000679933 to 0.000679933
Heightened Def Con from 0.000680246 to 0.000680249
Heightened Def Con from 0.00068025 to 0.00068025
Heightened Def Con from 0.000680261 to 0.000680268
Heightened Def Con from 0.000684884 to 0.000684886
Heightened Def Con from 0.000684887 to 0.000684888
Heightened Def Con from 0.000685169 to 0.000685169
Heightened Def Con from 0.00068518 to 0.000685187
Heightened Def Con from 0.000689832 to 0.000689834
Heightened Def Con from 0.000689835 to 0.000689835
Heightened Def Con from 0.000690087 to 0.000690088
Heightened Def Con from 0.000690098 to 0.000690105
Heightened Def Con from 0.000694781 to 0.000694782
Heightened Def Con from 0.000695 to 0.000695005
Heightened Def Con from 0.000695007 to 0.000695007
Heightened Def Con from 0.000695018 to 0.000695025
Heightened Def Con from 0.000699724 to 0.000699726
Heightened Def Con from 0.000699727 to 0.000699727
Heightened Def Con from 0.00069992 to 0.000699925
Heightened Def Con from 0.000699927 to 0.000699927
Heightened Def Con from 0.000699938 to 0.000699945
Heightened Def Con from 0.000704666 to 0.000704668
Heightened Def Con from 0.000704669 to 0.000704669
Heightened Def Con from 0.000704841 to 0.000704846
Heightened Def Con from 0.000704848 to 0.000704848
Heightened Def Con from 0.000704858 to 0.000704865
Heightened Def Con from 0.00070961 to 0.00070961
Heightened Def Con from 0.000709762 to 0.000709767
Heightened Def Con from 0.000709769 to 0.000709769
Heightened Def Con from 0.00070978 to 0.000709787
Heightened Def Con from 0.000714554 to 0.000714554
Heightened Def Con from 0.000714684 to 0.000714689
Heightened Def Con from 0.00071469 to 0.00071469
Heightened Def Con from 0.000714701 to 0.000714708
Heightened Def Con from 0.000719497 to 0.000719497
Heightened Def Con from 0.000719612 to 0.000719612
Heightened Def Con from 0.000719622 to 0.000719629
Heightened Def Con from 0.000724432 to 0.000724434
Heightened Def Con from 0.000724434 to 0.000724435
Heightened Def Con from 0.000724528 to 0.000724528
Heightened Def Con from 0.00072453 to 0.000724533
Heightened Def Con from 0.000724535 to 0.000724535
Heightened Def Con from 0.000724545 to 0.000724552
Heightened Def Con from 0.000729376 to 0.000729376
Heightened Def Con from 0.000729451 to 0.000729456
Heightened Def Con from 0.000729458 to 0.000729458
Heightened Def Con from 0.000729468 to 0.000729476
Heightened Def Con from 0.00073431 to 0.000734311
Heightened Def Con from 0.000734312 to 0.000734313
Heightened Def Con from 0.000734375 to 0.00073438
Heightened Def Con from 0.000734382 to 0.000734382
Heightened Def Con from 0.000734392 to 0.0007344
Heightened Def Con from 0.00073925 to 0.00073925
Heightened Def Con from 0.000739307 to 0.000739307
Heightened Def Con from 0.000739317 to 0.000739325
Heightened Def Con from 0.000744184 to 0.000744186
Heightened Def Con from 0.000744188 to 0.000744188
Heightened Def Con from 0.000744234 to 0.000744234
Heightened Def Con from 0.000744244 to 0.000744252
Heightened Def Con from 0.00074912 to 0.00074912
Heightened Def Con from 0.000749163 to 0.000749164
Heightened Def Con from 0.000749173 to 0.000749182
Heightened Def Con from 0.000754047 to 0.000754049
Heightened Def Con from 0.00075405 to 0.00075405
Heightened Def Con from 0.000754098 to 0.000754098
Heightened Def Con from 0.000754108 to 0.000754116
Heightened Def Con from 0.000758981 to 0.000758983
Heightened Def Con from 0.000758984 to 0.000758984
Heightened Def Con from 0.000759034 to 0.000759034
Heightened Def Con from 0.000759044 to 0.000759052
Heightened Def Con from 0.000763902 to 0.000763904
Heightened Def Con from 0.000763905 to 0.000763905
Heightened Def Con from 0.000763967 to 0.000763972
Heightened Def Con from 0.000763973 to 0.000763973
Heightened Def Con from 0.000763984 to 0.000763992
Heightened Def Con from 0.000768835 to 0.000768835
Heightened Def Con from 0.000768907 to 0.000768912
Heightened Def Con from 0.000768914 to 0.000768914
Heightened Def Con from 0.000768924 to 0.000768932
Heightened Def Con from 0.000773757 to 0.000773758
Heightened Def Con from 0.000773849 to 0.000773849
Heightened Def Con from 0.000773855 to 0.000773855
Heightened Def Con from 0.000773866 to 0.000773873
Heightened Def Con from 0.000778685 to 0.000778685
Heightened Def Con from 0.000778798 to 0.000778798
Heightened Def Con from 0.000778809 to 0.000778817
Heightened Def Con from 0.000783613 to 0.000783613
Heightened Def Con from 0.000783734 to 0.000783739
Heightened Def Con from 0.000783741 to 0.000783741
Heightened Def Con from 0.000783751 to 0.000783758
Heightened Def Con from 0.000788533 to 0.000788535
Heightened Def Con from 0.000788536 to 0.000788536
Heightened Def Con from 0.000788677 to 0.000788682
Heightened Def Con from 0.000788684 to 0.000788684
Heightened Def Con from 0.000788694 to 0.000788701
Heightened Def Con from 0.000793455 to 0.000793455
Heightened Def Con from 0.000793621 to 0.000793626
Heightened Def Con from 0.000793628 to 0.000793628
Heightened Def Con from 0.000793638 to 0.000793645
Heightened Def Con from 0.00079838 to 0.00079838
Heightened Def Con from 0.000798566 to 0.000798571
Heightened Def Con from 0.000798572 to 0.000798572
Heightened Def Con from 0.000798583 to 0.00079859
Heightened Def Con from 0.000803299 to 0.000803299
Heightened Def Con from 0.00080351 to 0.000803515
Heightened Def Con from 0.000803517 to 0.000803517
Heightened Def Con from 0.000808219 to 0.000808219
Heightened Def Con from 0.000808455 to 0.000808461
Heightened Def Con from 0.000808462 to 0.000808462
Heightened Def Con from 0.000808473 to 0.00080848
Heightened Def Con from 0.000813136 to 0.000813137
Heightened Def Con from 0.000813407 to 0.000813407
Heightened Def Con from 0.000813417 to 0.000813424
Heightened Def Con from 0.000818049 to 0.000818051
Heightened Def Con from 0.000818053 to 0.000818053
Heightened Def Con from 0.000818349 to 0.000818352
Heightened Def Con from 0.000818353 to 0.000818353
Heightened Def Con from 0.000818364 to 0.000818371
Heightened Def Con from 0.000822961 to 0.000822963
Heightened Def Con from 0.000822964 to 0.000822964
Heightened Def Con from 0.000823294 to 0.000823299
Heightened Def Con from 0.000823301 to 0.000823301
Heightened Def Con from 0.000823311 to 0.000823318
Heightened Def Con from 0.000827881 to 0.000827882
Heightened Def Con from 0.000828244 to 0.000828247
Heightened Def Con from 0.000828249 to 0.000828249
Heightened Def Con from 0.000828259 to 0.000828266
Heightened Def Con from 0.000832792 to 0.000832793
Heightened Def Con from 0.000832794 to 0.000832794
Heightened Def Con from 0.000833191 to 0.000833196
Heightened Def Con from 0.000833198 to 0.000833198
Heightened Def Con from 0.000833209 to 0.000833216
Heightened Def Con from 0.000837706 to 0.000837706
Heightened Def Con from 0.000838141 to 0.000838146
Heightened Def Con from 0.000838148 to 0.000838148
Heightened Def Con from 0.000838158 to 0.000838165
Heightened Def Con from 0.000842612 to 0.000842614
Heightened Def Con from 0.000842615 to 0.000842615
Heightened Def Con from 0.000843098 to 0.000843099
Heightened Def Con from 0.000843109 to 0.000843116
Heightened Def Con from 0.000847531 to 0.000847531
Heightened Def Con from 0.00084806 to 0.000848067
Heightened Def Con from 0.000852438 to 0.000852438
Heightened Def Con from 0.000853003 to 0.000853003
Heightened Def Con from 0.000853014 to 0.000853021
Heightened Def Con from 0.000857345 to 0.000857347
Heightened Def Con from 0.000857348 to 0.000857349
Heightened Def Con from 0.000857956 to 0.000857956
Heightened Def Con from 0.000857966 to 0.000857973
Heightened Def Con from 0.000862252 to 0.000862252
Heightened Def Con from 0.000862906 to 0.000862909
Heightened Def Con from 0.00086291 to 0.00086291
Heightened Def Con from 0.000862921 to 0.000862928
Heightened Def Con from 0.000867161 to 0.000867161
Heightened Def Con from 0.000867865 to 0.000867865
Heightened Def Con from 0.000867876 to 0.000867883
Heightened Def Con from 0.00087207 to 0.00087207
Heightened Def Con from 0.000872814 to 0.000872819
Heightened Def Con from 0.000872821 to 0.000872821
Heightened Def Con from 0.000872832 to 0.000872839
Heightened Def Con from 0.000876972 to 0.000876972
Heightened Def Con from 0.00087777 to 0.000877776
Heightened Def Con from 0.000877777 to 0.000877777
Heightened Def Con from 0.000877788 to 0.000877795
Heightened Def Con from 0.00088187 to 0.000881872
Heightened Def Con from 0.000881873 to 0.000881873
Heightened Def Con from 0.000882728 to 0.000882734
Heightened Def Con from 0.000882734 to 0.000882734
Heightened Def Con from 0.000882745 to 0.000882752
Heightened Def Con from 0.000886778 to 0.000886778
Heightened Def Con from 0.000887685 to 0.000887691
Heightened Def Con from 0.000887692 to 0.000887692
Heightened Def Con from 0.000887703 to 0.000887711
Heightened Def Con from 0.000891682 to 0.000891682
Heightened Def Con from 0.00089265 to 0.000892651
Heightened Def Con from 0.000892661 to 0.00089267
Heightened Def Con from 0.000896583 to 0.000896583
Heightened Def Con from 0.000897606 to 0.000897609
Heightened Def Con from 0.00089761 to 0.00089761
Heightened Def Con from 0.000897621 to 0.000897632
Heightened Def Con from 0.000901485 to 0.000901485
Heightened Def Con from 0.000902563 to 0.000902569
Heightened Def Con from 0.00090257 to 0.00090257
Heightened Def Con from 0.00090258 to 0.000902588
Heightened Def Con from 0.000906384 to 0.000906384
Heightened Def Con from 0.000907523 to 0.000907529
Heightened Def Con from 0.00090753 to 0.00090753
Heightened Def Con from 0.00090754 to 0.000907548
Heightened Def Con from 0.000911285 to 0.000911285
Heightened Def Con from 0.000912491 to 0.000912491
Heightened Def Con from 0.000912502 to 0.000912513
Heightened Def Con from 0.000916186 to 0.000916186
Heightened Def Con from 0.000917453 to 0.000917453
Heightened Def Con from 0.000917464 to 0.000917475
Heightened Def Con from 0.000921081 to 0.000921083
Heightened Def Con from 0.000921084 to 0.000921084
Heightened Def Con from 0.000922416 to 0.000922416
Heightened Def Con from 0.000922426 to 0.000922437
Heightened Def Con from 0.000925978 to 0.00092598
Heightened Def Con from 0.000925981 to 0.000925981
Heightened Def Con from 0.000927371 to 0.000927377
Heightened Def Con from 0.000927378 to 0.000927378
Heightened Def Con from 0.000927389 to 0.000927391
Heightened Def Con from 0.000930876 to 0.000930876
Heightened Def Con from 0.000932334 to 0.00093234
Heightened Def Con from 0.000932341 to 0.000932342
Heightened Def Con from 0.000932352 to 0.000932363
Heightened Def Con from 0.000935777 to 0.000935777
Heightened Def Con from 0.000937302 to 0.000937305
Heightened Def Con from 0.000937306 to 0.000937306
Heightened Def Con from 0.000937316 to 0.000937327
Heightened Def Con from 0.000940668 to 0.000940669
Heightened Def Con from 0.00094067 to 0.00094067
Heightened Def Con from 0.000942263 to 0.000942269
Heightened Def Con from 0.00094227 to 0.00094227
Heightened Def Con from 0.00094228 to 0.000942284
Heightened Def Con from 0.000945569 to 0.00094557
Heightened Def Con from 0.000945571 to 0.000945571
Heightened Def Con from 0.00094723 to 0.000947233
Heightened Def Con from 0.000947234 to 0.000947234
Heightened Def Con from 0.000950466 to 0.000950466
Heightened Def Con from 0.000952194 to 0.000952196
Heightened Def Con from 0.000952198 to 0.000952198
Heightened Def Con from 0.00095536 to 0.00095536
Heightened Def Con from 0.000957163 to 0.000957163
Heightened Def Con from 0.000960257 to 0.000960258
Heightened Def Con from 0.000960259 to 0.000960259
Heightened Def Con from 0.000962129 to 0.000962129
Heightened Def Con from 0.000965151 to 0.000965152
Heightened Def Con from 0.000967095 to 0.000967095
Heightened Def Con from 0.000970048 to 0.000970048
Heightened Def Con from 0.000972061 to 0.000972061
Heightened Def Con from 0.000974939 to 0.00097494
Heightened Def Con from 0.00097494 to 0.000974941
Heightened Def Con from 0.000977026 to 0.000977026
Heightened Def Con from 0.000979837 to 0.000979837
Heightened Def Con from 0.000981993 to 0.000981993
Heightened Def Con from 0.000984727 to 0.000984727
Heightened Def Con from 0.000984727 to 0.000984728
Heightened Def Con from 0.000986959 to 0.00098696
Heightened Def Con from 0.000986962 to 0.000986981
Heightened Def Con from 0.000989623 to 0.000989623
Heightened Def Con from 0.000991926 to 0.000991926
Heightened Def Con from 0.000994514 to 0.000994514
Heightened Def Con from 0.000994514 to 0.000994536
Heightened Def Con from 0.000996893 to 0.000996914
Heightened Def Con from 0.00099941 to 0.000999411
Heightened Def Con from 0.00100186 to 0.00100186
Heightened Def Con from 0.00100186 to 0.00100188
Heightened Def Con from 0.0010043 to 0.0010043
Heightened Def Con from 0.0010043 to 0.00100432
Heightened Def Con from 0.00100683 to 0.00100683
Heightened Def Con from 0.00100919 to 0.00100919
Heightened Def Con from 0.00101179 to 0.00101179
Heightened Def Con from 0.00101409 to 0.00101409
Heightened Def Con from 0.00101676 to 0.00101676
Heightened Def Con from 0.00101899 to 0.00101899
Heightened Def Con from 0.00101899 to 0.00101901
Heightened Def Con from 0.00102172 to 0.00102172
Heightened Def Con from 0.00102172 to 0.00102172
Heightened Def Con from 0.00102388 to 0.00102388
Heightened Def Con from 0.00102669 to 0.00102669
Heightened Def Con from 0.00102669 to 0.00102669
Heightened Def Con from 0.00102878 to 0.00102878
Heightened Def Con from 0.00103166 to 0.00103166
Heightened Def Con from 0.00103367 to 0.00103367
Heightened Def Con from 0.00103662 to 0.00103662
Heightened Def Con from 0.00103662 to 0.00103662
Heightened Def Con from 0.00103857 to 0.00103857
Heightened Def Con from 0.00104159 to 0.00104159
Heightened Def Con from 0.00104346 to 0.00104346
Heightened Def Con from 0.00104655 to 0.00104655
Heightened Def Con from 0.00104836 to 0.00104836
Heightened Def Con from 0.00105152 to 0.00105152
Heightened Def Con from 0.00105325 to 0.00105325
Heightened Def Con from 0.00105648 to 0.00105648
Heightened Def Con from 0.00105648 to 0.00105648
Heightened Def Con from 0.00105814 to 0.00105815
Heightened Def Con from 0.00105815 to 0.00105815
Heightened Def Con from 0.00106145 to 0.00106145
Heightened Def Con from 0.00106304 to 0.00106304
Heightened Def Con from 0.00106304 to 0.00106304
Heightened Def Con from 0.00106305 to 0.00106306
Heightened Def Con from 0.00106641 to 0.00106641
Heightened Def Con from 0.00106794 to 0.00106794
Heightened Def Con from 0.00106795 to 0.00106796
Heightened Def Con from 0.00107137 to 0.00107137
Heightened Def Con from 0.00107283 to 0.00107283
Heightened Def Con from 0.00107283 to 0.00107283
Heightened Def Con from 0.00107285 to 0.00107285
Heightened Def Con from 0.00107634 to 0.00107634
Heightened Def Con from 0.00107773 to 0.00107774
Heightened Def Con from 0.00107774 to 0.00107774
Heightened Def Con from 0.00107775 to 0.00107776
Heightened Def Con from 0.0010813 to 0.0010813
Heightened Def Con from 0.00108263 to 0.00108263
Heightened Def Con from 0.00108263 to 0.00108263
Heightened Def Con from 0.00108264 to 0.00108265
Heightened Def Con from 0.00108626 to 0.00108626
Heightened Def Con from 0.00108626 +to 0.00108626
Heightened Def Con from 0.00108626 to 0.00108626
Heightened Def Con from 0.00108753 to 0.00108753
Heightened Def Con from 0.00108754 to 0.00108755
Heightened Def Con from 0.00109122 to 0.00109122
Heightened Def Con from 0.00109243 to 0.00109243
Heightened Def Con from 0.00109244 to 0.00109245
Heightened Def Con from 0.00109618 to 0.00109618
Heightened Def Con from 0.00109734 to 0.00109734
Heightened Def Con from 0.00109735 to 0.00109736
Heightened Def Con from 0.00110114 to 0.00110114
Heightened Def Con from 0.00110114 to 0.00110114
Heightened Def Con from 0.00110223 to 0.00110223
Heightened Def Con from 0.00110225 to 0.00110226
Heightened Def Con from 0.0011061 to 0.0011061
Heightened Def Con from 0.0011061 to 0.0011061
Heightened Def Con from 0.00110714 to 0.00110714
Heightened Def Con from 0.00110715 to 0.00110716
Heightened Def Con from 0.00111106 to 0.00111106
Heightened Def Con from 0.00111204 to 0.00111204
Heightened Def Con from 0.00111205 to 0.00111206
Heightened Def Con from 0.00111602 to 0.00111602
Heightened Def Con from 0.00111694 to 0.00111694
Heightened Def Con from 0.00111695 to 0.00111696
Heightened Def Con from 0.00112097 to 0.00112098
Heightened Def Con from 0.00112098 to 0.00112098
Heightened Def Con from 0.00112185 to 0.00112185
Heightened Def Con from 0.00112186 to 0.00112186
Heightened Def Con from 0.00112593 to 0.00112593
Heightened Def Con from 0.00112593 to 0.00112593
Heightened Def Con from 0.00112675 to 0.00112675
Heightened Def Con from 0.00112676 to 0.00112677
Heightened Def Con from 0.00113089 to 0.00113089
Heightened Def Con from 0.00113089 to 0.00113089
Heightened Def Con from 0.00113165 to 0.00113165
Heightened Def Con from 0.00113167 to 0.00113167
Heightened Def Con from 0.00113584 to 0.00113584
Heightened Def Con from 0.00113585 to 0.00113585
Heightened Def Con from 0.00113657 to 0.00113657
Heightened Def Con from 0.00113658 to 0.00113658
Heightened Def Con from 0.0011408 to 0.0011408
Heightened Def Con from 0.00114147 to 0.00114147
Heightened Def Con from 0.00114148 to 0.00114149
Heightened Def Con from 0.00114575 to 0.00114575
Heightened Def Con from 0.00114638 to 0.00114638
Heightened Def Con from 0.00114639 to 0.00114639
Heightened Def Con from 0.00115071 to 0.00115071
Heightened Def Con from 0.00115129 to 0.00115129
Heightened Def Con from 0.0011513 to 0.00115131
Heightened Def Con from 0.00115565 to 0.00115566
Heightened Def Con from 0.00115566 to 0.00115566
Heightened Def Con from 0.0011562 to 0.0011562
Heightened Def Con from 0.00115621 to 0.00115622
Heightened Def Con from 0.00116061 to 0.00116061
Heightened Def Con from 0.00116061 to 0.00116061
Heightened Def Con from 0.00116111 to 0.00116111
Heightened Def Con from 0.00116112 to 0.00116113
Heightened Def Con from 0.00116556 to 0.00116556
Heightened Def Con from 0.00116602 to 0.00116602
Heightened Def Con from 0.00116603 to 0.00116604
Heightened Def Con from 0.0011705 to 0.00117051
Heightened Def Con from 0.00117051 to 0.00117051
Heightened Def Con from 0.00117094 to 0.00117094
Heightened Def Con from 0.00117095 to 0.00117096
Heightened Def Con from 0.00117545 to 0.00117545
Heightened Def Con from 0.00117545 to 0.00117545
Heightened Def Con from 0.00117585 to 0.00117585
Heightened Def Con from 0.00117586 to 0.00117587
Heightened Def Con from 0.0011804 to 0.0011804
Heightened Def Con from 0.00118076 to 0.00118076
Heightened Def Con from 0.00118077 to 0.00118078
Heightened Def Con from 0.00118535 to 0.00118535
Heightened Def Con from 0.00118568 to 0.00118568
Heightened Def Con from 0.00118569 to 0.0011857
Heightened Def Con from 0.00119029 to 0.00119029
Heightened Def Con from 0.0011906 to 0.0011906
Heightened Def Con from 0.00119061 to 0.00119062
Heightened Def Con from 0.00119523 to 0.00119524
Heightened Def Con from 0.00119524 to 0.00119524
Heightened Def Con from 0.00119551 to 0.00119551
Heightened Def Con from 0.00119553 to 0.00119554
Heightened Def Con from 0.00120018 to 0.00120018
Heightened Def Con from 0.00120043 to 0.00120043
Heightened Def Con from 0.00120045 to 0.00120045
Heightened Def Con from 0.00120512 to 0.00120512
Heightened Def Con from 0.00120535 to 0.00120535
Heightened Def Con from 0.00120536 to 0.00120537
Heightened Def Con from 0.00121006 to 0.00121006
Heightened Def Con from 0.00121006 to 0.00121006
Heightened Def Con from 0.00121027 to 0.00121027
Heightened Def Con from 0.00121028 to 0.00121029
Heightened Def Con from 0.001215 to 0.001215
Heightened Def Con from 0.0012152 to 0.0012152
Heightened Def Con from 0.00121521 to 0.00121522
Heightened Def Con from 0.00121994 to 0.00121994
Heightened Def Con from 0.00122012 to 0.00122013
Heightened Def Con from 0.00122014 to 0.00122015
Heightened Def Con from 0.00122488 to 0.00122488
Heightened Def Con from 0.00122488 to 0.00122488
Heightened Def Con from 0.00122504 to 0.00122505
Heightened Def Con from 0.00122506 to 0.00122507
Heightened Def Con from 0.00122982 to 0.00122982
Heightened Def Con from 0.00122982 to 0.00122982
Heightened Def Con from 0.00122997 to 0.00122997
Heightened Def Con from 0.00122998 to 0.00122999
Heightened Def Con from 0.00123476 to 0.00123476
Heightened Def Con from 0.0012349 to 0.0012349
Heightened Def Con from 0.00123491 to 0.00123492
Heightened Def Con from 0.00123969 to 0.00123969
Heightened Def Con from 0.00123982 to 0.00123982
Heightened Def Con from 0.00123984 to 0.00123985
Heightened Def Con from 0.00124462 to 0.00124463
Heightened Def Con from 0.00124463 to 0.00124463
Heightened Def Con from 0.00124475 to 0.00124475
Heightened Def Con from 0.00124477 to 0.00124478
Heightened Def Con from 0.00124956 to 0.00124956
Heightened Def Con from 0.00124956 to 0.00124956
Heightened Def Con from 0.00124969 to 0.00124969
Heightened Def Con from 0.0012497 to 0.00124971
Heightened Def Con from 0.00125449 to 0.00125449
Heightened Def Con from 0.00125462 to 0.00125462
Heightened Def Con from 0.00125463 to 0.00125464
Heightened Def Con from 0.00125942 to 0.00125942
Heightened Def Con from 0.00125955 to 0.00125955
Heightened Def Con from 0.00125957 to 0.00125958
Heightened Def Con from 0.00126435 to 0.00126435
Heightened Def Con from 0.00126449 to 0.00126449
Heightened Def Con from 0.0012645 to 0.00126451
Heightened Def Con from 0.00126928 to 0.00126928
Heightened Def Con from 0.00126943 to 0.00126943
Heightened Def Con from 0.00126944 to 0.00126945
Heightened Def Con from 0.00127421 to 0.00127421
Heightened Def Con from 0.00127437 to 0.00127437
Heightened Def Con from 0.00127438 to 0.00127439
Heightened Def Con from 0.00127913 to 0.00127913
Heightened Def Con from 0.00127914 to 0.00127914
Heightened Def Con from 0.00127931 to 0.00127931
Heightened Def Con from 0.00127932 to 0.00127933
Heightened Def Con from 0.00128406 to 0.00128406
Heightened Def Con from 0.00128425 to 0.00128425
Heightened Def Con from 0.00128426 to 0.00128427
Heightened Def Con from 0.00128899 to 0.00128899
Heightened Def Con from 0.00128919 to 0.00128919
Heightened Def Con from 0.00128921 to 0.00128921
Heightened Def Con from 0.00129391 to 0.00129391
Heightened Def Con from 0.00129414 to 0.00129414
Heightened Def Con from 0.00129415 to 0.00129416
Heightened Def Con from 0.00129883 to 0.00129883
Heightened Def Con from 0.00129908 to 0.00129908
Heightened Def Con from 0.00129909 to 0.0012991
Heightened Def Con from 0.00130375 to 0.00130375
Heightened Def Con from 0.00130375 to 0.00130375
Heightened Def Con from 0.00130402 to 0.00130403
Heightened Def Con from 0.00130867 to 0.00130867
Heightened Def Con from 0.00130897 to 0.00130897
Heightened Def Con from 0.00130898 to 0.00130899
Heightened Def Con from 0.00131359 to 0.00131359
Heightened Def Con from 0.00131392 to 0.00131392
Heightened Def Con from 0.00131393 to 0.00131394
Heightened Def Con from 0.00131851 to 0.00131851
Heightened Def Con from 0.00131887 to 0.00131887
Heightened Def Con from 0.00131888 to 0.00131888
Heightened Def Con from 0.00132343 to 0.00132343
Heightened Def Con from 0.00132382 to 0.00132382
Heightened Def Con from 0.00132383 to 0.00132384
Heightened Def Con from 0.00132835 to 0.00132835
Heightened Def Con from 0.00132877 to 0.00132877
Heightened Def Con from 0.00132878 to 0.00132879
Heightened Def Con from 0.00133326 to 0.00133326
Heightened Def Con from 0.00133372 to 0.00133372
Heightened Def Con from 0.00133373 to 0.00133374
Heightened Def Con from 0.00133817 to 0.00133818
Heightened Def Con from 0.00133818 to 0.00133818
Heightened Def Con from 0.00133867 to 0.00133867
Heightened Def Con from 0.00133868 to 0.00133869
Heightened Def Con from 0.00134309 to 0.00134309
Heightened Def Con from 0.00134309 to 0.00134309
Heightened Def Con from 0.00134362 to 0.00134362
Heightened Def Con from 0.00134364 to 0.00134364
Heightened Def Con from 0.00134801 to 0.00134801
Heightened Def Con from 0.00134858 to 0.00134858
Heightened Def Con from 0.00134859 to 0.0013486
Heightened Def Con from 0.00135291 to 0.00135292
Heightened Def Con from 0.00135292 to 0.00135292
Heightened Def Con from 0.00135354 to 0.00135354
Heightened Def Con from 0.00135355 to 0.00135356
Heightened Def Con from 0.00135783 to 0.00135783
Heightened Def Con from 0.00135783 to 0.00135783
Heightened Def Con from 0.00135849 to 0.00135849
Heightened Def Con from 0.00135851 to 0.00135852
Heightened Def Con from 0.00136274 to 0.00136274
Heightened Def Con from 0.00136274 to 0.00136274
Heightened Def Con from 0.00136345 to 0.00136345
Heightened Def Con from 0.00136346 to 0.00136347
Heightened Def Con from 0.00136765 to 0.00136765
Heightened Def Con from 0.00136765 to 0.00136765
Heightened Def Con from 0.00136841 to 0.00136841
Heightened Def Con from 0.00136842 to 0.00136843
Heightened Def Con from 0.00137256 to 0.00137256
Heightened Def Con from 0.00137256 to 0.00137256
Heightened Def Con from 0.00137337 to 0.00137337
Heightened Def Con from 0.00137338 to 0.00137339
Heightened Def Con from 0.00137747 to 0.00137747
Heightened Def Con from 0.00137833 to 0.00137833
Heightened Def Con from 0.00137834 to 0.00137835
Heightened Def Con from 0.00138237 to 0.00138238
Heightened Def Con from 0.00138238 to 0.00138238
Heightened Def Con from 0.00138329 to 0.00138329
Heightened Def Con from 0.0013833 to 0.00138331
Heightened Def Con from 0.00138728 to 0.00138728
Heightened Def Con from 0.00138825 to 0.00138825
Heightened Def Con from 0.00138826 to 0.00138827
Heightened Def Con from 0.00139219 to 0.00139219
Heightened Def Con from 0.00139321 to 0.00139321
Heightened Def Con from 0.00139322 to 0.00139323
Heightened Def Con from 0.0013971 to 0.0013971
Heightened Def Con from 0.00139818 to 0.00139818
Heightened Def Con from 0.00139819 to 0.0013982
Heightened Def Con from 0.001402 to 0.001402
Heightened Def Con from 0.001402 to 0.001402
Heightened Def Con from 0.00140314 to 0.00140314
Heightened Def Con from 0.00140315 to 0.00140316
Heightened Def Con from 0.0014069 to 0.0014069
Heightened Def Con from 0.00140691 to 0.00140691
Heightened Def Con from 0.0014081 to 0.0014081
Heightened Def Con from 0.00140811 to 0.00140812
Heightened Def Con from 0.00141181 to 0.00141181
Heightened Def Con from 0.00141181 to 0.00141181
Heightened Def Con from 0.00141306 to 0.00141307
Heightened Def Con from 0.00141307 to 0.00141307
Heightened Def Con from 0.00141671 to 0.00141671
Heightened Def Con from 0.00141671 to 0.00141671
Heightened Def Con from 0.00141803 to 0.00141803
Heightened Def Con from 0.00141804 to 0.00141804
Heightened Def Con from 0.00141805 to 0.00141806
Heightened Def Con from 0.00142162 to 0.00142162
Heightened Def Con from 0.001423 to 0.001423
Heightened Def Con from 0.001423 to 0.001423
Heightened Def Con from 0.00142301 to 0.00142302
Heightened Def Con from 0.00142652 to 0.00142652
Heightened Def Con from 0.00142796 to 0.00142797
Heightened Def Con from 0.00142797 to 0.00142797
Heightened Def Con from 0.00142798 to 0.00142799
Heightened Def Con from 0.00143142 to 0.00143142
Heightened Def Con from 0.00143142 to 0.00143142
Heightened Def Con from 0.00143293 to 0.00143293
Heightened Def Con from 0.00143294 to 0.00143294
Heightened Def Con from 0.00143295 to 0.00143296
Heightened Def Con from 0.00143632 to 0.00143632
Heightened Def Con from 0.0014379 to 0.0014379
Heightened Def Con from 0.0014379 to 0.0014379
Heightened Def Con from 0.00143792 to 0.00143793
Heightened Def Con from 0.00144122 to 0.00144122
Heightened Def Con from 0.00144287 to 0.00144287
Heightened Def Con from 0.00144287 to 0.00144287
Heightened Def Con from 0.00144287 to 0.00144287
Heightened Def Con from 0.00144612 to 0.00144612
Heightened Def Con from 0.00144784 to 0.00144784
Heightened Def Con from 0.00144784 to 0.00144784
Heightened Def Con from 0.00145102 to 0.00145102
Heightened Def Con from 0.00145103 to 0.00145103
Heightened Def Con from 0.00145281 to 0.00145281
Heightened Def Con from 0.00145593 to 0.00145593
Heightened Def Con from 0.00145778 to 0.00145778
Heightened Def Con from 0.00146082 to 0.00146082
Heightened Def Con from 0.00146275 to 0.00146275
Heightened Def Con from 0.00146572 to 0.00146572
Heightened Def Con from 0.00146572 to 0.00146572
Heightened Def Con from 0.00146772 to 0.00146772
Heightened Def Con from 0.00147062 to 0.00147062
Heightened Def Con from 0.00147062 to 0.00147062
Heightened Def Con from 0.00147269 to 0.00147269
Heightened Def Con from 0.00147552 to 0.00147552
Heightened Def Con from 0.00147552 to 0.00147552
Heightened Def Con from 0.00147767 to 0.00147767
Heightened Def Con from 0.00148042 to 0.00148042
Heightened Def Con from 0.00148042 to 0.00148042
Heightened Def Con from 0.00148264 to 0.00148264
Heightened Def Con from 0.00148532 to 0.00148532
Heightened Def Con from 0.00148761 to 0.00148761
Heightened Def Con from 0.00148761 to 0.00148763
Heightened Def Con from 0.00149022 to 0.00149022
Heightened Def Con from 0.00149022 to 0.00149022
Heightened Def Con from 0.00149022 to 0.00149022
Heightened Def Con from 0.00149258 to 0.00149258
Heightened Def Con from 0.00149258 to 0.0014926
Heightened Def Con from 0.00149512 to 0.00149512
Heightened Def Con from 0.00149512 to 0.00149512
Heightened Def Con from 0.00149755 to 0.00149755
Heightened Def Con from 0.00150002 to 0.00150002
Heightened Def Con from 0.00150252 to 0.00150252
Heightened Def Con from 0.00150492 to 0.00150492
Heightened Def Con from 0.00150749 to 0.00150749
Heightened Def Con from 0.00150749 to 0.00150751
Heightened Def Con from 0.00150981 to 0.00150981
Heightened Def Con from 0.00151247 to 0.00151247
Heightened Def Con from 0.00151247 to 0.00151249
Heightened Def Con from 0.00151471 to 0.00151471
Heightened Def Con from 0.00151744 to 0.00151744
Heightened Def Con from 0.00151744 to 0.00151744
Heightened Def Con from 0.00151961 to 0.00151961
Heightened Def Con from 0.00151962 to 0.00151963
Heightened Def Con from 0.0015224 to 0.0015224
Heightened Def Con from 0.0015224 to 0.00152241
Heightened Def Con from 0.00152451 to 0.00152451
Heightened Def Con from 0.00152738 to 0.00152738
Heightened Def Con from 0.00152941 to 0.00152941
Heightened Def Con from 0.00153235 to 0.00153235
Heightened Def Con from 0.00153235 to 0.00153235
Heightened Def Con from 0.00153431 to 0.00153431
Heightened Def Con from 0.00153732 to 0.00153732
Heightened Def Con from 0.00153732 to 0.00153732
Heightened Def Con from 0.00153921 to 0.00153921
Heightened Def Con from 0.00154229 to 0.00154229
Heightened Def Con from 0.00154411 to 0.00154411
Heightened Def Con from 0.00154726 to 0.00154726
Heightened Def Con from 0.00154901 to 0.00154901
Heightened Def Con from 0.00155223 to 0.00155223
Heightened Def Con from 0.00155391 to 0.00155391
Heightened Def Con from 0.0015572 to 0.0015572
Heightened Def Con from 0.0015572 to 0.0015572
Heightened Def Con from 0.0015588 to 0.00155881
Heightened Def Con from 0.00155881 to 0.00155881
Heightened Def Con from 0.00155882 to 0.00155883
Heightened Def Con from 0.00156216 to 0.00156216
Heightened Def Con from 0.00156216 to 0.00156216
Heightened Def Con from 0.00156371 to 0.00156371
Heightened Def Con from 0.00156371 to 0.00156371
Heightened Def Con from 0.00156372 to 0.00156373
Heightened Def Con from 0.00156714 to 0.00156714
Heightened Def Con from 0.00156714 to 0.00156714
Heightened Def Con from 0.00156861 to 0.00156861
Heightened Def Con from 0.00156861 to 0.00156861
Heightened Def Con from 0.00156863 to 0.00156864
Heightened Def Con from 0.0015721 to 0.0015721
Heightened Def Con from 0.0015721 to 0.0015721
Heightened Def Con from 0.00157352 to 0.00157352
Heightened Def Con from 0.00157353 to 0.00157354
Heightened Def Con from 0.00157707 to 0.00157707
Heightened Def Con from 0.00157842 to 0.00157842
Heightened Def Con from 0.00157843 to 0.00157844
Heightened Def Con from 0.00158204 to 0.00158204
Heightened Def Con from 0.00158331 to 0.00158332
Heightened Def Con from 0.00158332 to 0.00158332
Heightened Def Con from 0.00158333 to 0.00158334
Heightened Def Con from 0.001587 to 0.001587
Heightened Def Con from 0.00158822 to 0.00158822
Heightened Def Con from 0.00158822 to 0.00158822
Heightened Def Con from 0.00158824 to 0.00158824
Heightened Def Con from 0.00159197 to 0.00159197
Heightened Def Con from 0.00159313 to 0.00159313
Heightened Def Con from 0.00159314 to 0.00159315
Heightened Def Con from 0.00159693 to 0.00159693
Heightened Def Con from 0.00159693 to 0.00159693
Heightened Def Con from 0.00159803 to 0.00159803
Heightened Def Con from 0.00159803 to 0.00159803
Heightened Def Con from 0.00159804 to 0.00159805
Heightened Def Con from 0.0016019 to 0.0016019
Heightened Def Con from 0.00160293 to 0.00160294
Heightened Def Con from 0.00160294 to 0.00160294
Heightened Def Con from 0.00160295 to 0.00160296
Heightened Def Con from 0.00160686 to 0.00160686
Heightened Def Con from 0.00160784 to 0.00160784
Heightened Def Con from 0.00160784 to 0.00160784
Heightened Def Con from 0.00160785 to 0.00160786
Heightened Def Con from 0.00161182 to 0.00161182
Heightened Def Con from 0.00161274 to 0.00161275
Heightened Def Con from 0.00161275 to 0.00161275
Heightened Def Con from 0.00161276 to 0.00161277
Heightened Def Con from 0.00161678 to 0.00161678
Heightened Def Con from 0.00161765 to 0.00161766
Heightened Def Con from 0.00161766 to 0.00161766
Heightened Def Con from 0.00161767 to 0.00161768
Heightened Def Con from 0.00162175 to 0.00162175
Heightened Def Con from 0.00162256 to 0.00162257
Heightened Def Con from 0.00162257 to 0.00162257
Heightened Def Con from 0.00162258 to 0.00162258
Heightened Def Con from 0.00162671 to 0.00162671
Heightened Def Con from 0.00162747 to 0.00162747
Heightened Def Con from 0.00162747 to 0.00162747
Heightened Def Con from 0.00162748 to 0.00162749
Heightened Def Con from 0.00163166 to 0.00163166
Heightened Def Con from 0.00163238 to 0.00163238
Heightened Def Con from 0.00163239 to 0.0016324
Heightened Def Con from 0.00163663 to 0.00163663
Heightened Def Con from 0.00163729 to 0.00163729
Heightened Def Con from 0.00163729 to 0.00163729
Heightened Def Con from 0.0016373 to 0.00163731
Heightened Def Con from 0.00164158 to 0.00164158
Heightened Def Con from 0.0016422 to 0.0016422
Heightened Def Con from 0.0016422 to 0.0016422
Heightened Def Con from 0.00164221 to 0.00164222
Heightened Def Con from 0.00164653 to 0.00164653
Heightened Def Con from 0.00164653 to 0.00164653
Heightened Def Con from 0.00164712 to 0.00164712
Heightened Def Con from 0.00164713 to 0.00164713
Heightened Def Con from 0.00165149 to 0.00165149
Heightened Def Con from 0.00165149 to 0.00165149
Heightened Def Con from 0.00165203 to 0.00165203
Heightened Def Con from 0.00165204 to 0.00165205
Heightened Def Con from 0.00165645 to 0.00165645
Heightened Def Con from 0.00165693 to 0.00165694
Heightened Def Con from 0.00165694 to 0.00165694
Heightened Def Con from 0.00165695 to 0.00165696
Heightened Def Con from 0.0016614 to 0.0016614
Heightened Def Con from 0.00166185 to 0.00166185
Heightened Def Con from 0.00166186 to 0.00166187
Heightened Def Con from 0.00166635 to 0.00166635
Heightened Def Con from 0.00166635 to 0.00166635
Heightened Def Con from 0.00166677 to 0.00166677
Heightened Def Con from 0.00166678 to 0.00166679
Heightened Def Con from 0.00167131 to 0.00167131
Heightened Def Con from 0.00167168 to 0.00167168
Heightened Def Con from 0.00167169 to 0.00167169
Heightened Def Con from 0.0016717 to 0.0016717
Heightened Def Con from 0.00167625 to 0.00167625
Heightened Def Con from 0.00167625 to 0.00167625
Heightened Def Con from 0.00167659 to 0.0016766
Heightened Def Con from 0.0016766 to 0.0016766
Heightened Def Con from 0.00167661 to 0.00167662
Heightened Def Con from 0.0016812 to 0.0016812
Heightened Def Con from 0.0016812 to 0.0016812
Heightened Def Con from 0.00168151 to 0.00168152
Heightened Def Con from 0.00168152 to 0.00168152
Heightened Def Con from 0.00168153 to 0.00168154
Heightened Def Con from 0.00168616 to 0.00168616
Heightened Def Con from 0.00168643 to 0.00168644
Heightened Def Con from 0.00168644 to 0.00168644
Heightened Def Con from 0.00168645 to 0.00168646
Heightened Def Con from 0.0016911 to 0.0016911
Heightened Def Con from 0.0016911 to 0.0016911
Heightened Def Con from 0.00169135 to 0.00169136
Heightened Def Con from 0.00169136 to 0.00169136
Heightened Def Con from 0.00169137 to 0.00169137
Heightened Def Con from 0.00169605 to 0.00169605
Heightened Def Con from 0.00169605 to 0.00169605
Heightened Def Con from 0.00169628 to 0.00169628
Heightened Def Con from 0.00169629 to 0.00169629
Heightened Def Con from 0.00170099 to 0.00170099
Heightened Def Con from 0.00170119 to 0.0017012
Heightened Def Con from 0.0017012 to 0.0017012
Heightened Def Con from 0.00170121 to 0.00170121
Heightened Def Con from 0.00170593 to 0.00170594
Heightened Def Con from 0.00170594 to 0.00170594
Heightened Def Con from 0.00170612 to 0.00170612
Heightened Def Con from 0.00170613 to 0.00170614
Heightened Def Con from 0.00171088 to 0.00171088
Heightened Def Con from 0.00171103 to 0.00171104
Heightened Def Con from 0.00171104 to 0.00171104
Heightened Def Con from 0.00171582 to 0.00171582
Heightened Def Con from 0.00171596 to 0.00171596
Heightened Def Con from 0.00171597 to 0.00171598
Heightened Def Con from 0.00172076 to 0.00172076
Heightened Def Con from 0.00172088 to 0.00172088
Heightened Def Con from 0.00172088 to 0.00172088
Heightened Def Con from 0.00172089 to 0.0017209
Heightened Def Con from 0.0017257 to 0.0017257
Heightened Def Con from 0.00172581 to 0.00172581
Heightened Def Con from 0.00172582 to 0.00172583
Heightened Def Con from 0.00173064 to 0.00173064
Heightened Def Con from 0.00173072 to 0.00173073
Heightened Def Con from 0.00173073 to 0.00173073
Heightened Def Con from 0.00173074 to 0.00173075
Heightened Def Con from 0.00173557 to 0.00173557
Heightened Def Con from 0.00173557 to 0.00173557
Heightened Def Con from 0.00173565 to 0.00173566
Heightened Def Con from 0.00173566 to 0.00173566
Heightened Def Con from 0.00173567 to 0.00173567
Heightened Def Con from 0.00174051 to 0.00174051
Heightened Def Con from 0.00174058 to 0.00174058
Heightened Def Con from 0.00174058 to 0.00174058
Heightened Def Con from 0.00174059 to 0.0017406
Heightened Def Con from 0.00174544 to 0.00174545
Heightened Def Con from 0.00174545 to 0.00174545
Heightened Def Con from 0.00174551 to 0.00174551
Heightened Def Con from 0.00174552 to 0.00174553
Heightened Def Con from 0.00175038 to 0.00175038
Heightened Def Con from 0.00175044 to 0.00175044
Heightened Def Con from 0.00175045 to 0.00175046
Heightened Def Con from 0.00175531 to 0.00175531
Heightened Def Con from 0.00175538 to 0.00175538
Heightened Def Con from 0.00175539 to 0.0017554
Heightened Def Con from 0.00176024 to 0.00176024
Heightened Def Con from 0.00176031 to 0.00176031
Heightened Def Con from 0.00176031 to 0.00176031
Heightened Def Con from 0.00176032 to 0.00176033
Heightened Def Con from 0.00176517 to 0.00176517
Heightened Def Con from 0.00176517 to 0.00176517
Heightened Def Con from 0.00176525 to 0.00176525
Heightened Def Con from 0.00176525 to 0.00176525
Heightened Def Con from 0.00176526 to 0.00176527
Heightened Def Con from 0.0017701 to 0.0017701
Heightened Def Con from 0.0017701 to 0.0017701
Heightened Def Con from 0.00177019 to 0.00177019
Heightened Def Con from 0.0017702 to 0.00177021
Heightened Def Con from 0.00177502 to 0.00177502
Heightened Def Con from 0.00177502 to 0.00177502
Heightened Def Con from 0.00177513 to 0.00177513
Heightened Def Con from 0.00177514 to 0.00177515
Heightened Def Con from 0.00177994 to 0.00177994
Heightened Def Con from 0.00177995 to 0.00177995
Heightened Def Con from 0.00178007 to 0.00178007
Heightened Def Con from 0.00178007 to 0.00178007
Heightened Def Con from 0.00178009 to 0.00178009
Heightened Def Con from 0.00178487 to 0.00178487
Heightened Def Con from 0.00178501 to 0.00178502
Heightened Def Con from 0.00178502 to 0.00178502
Heightened Def Con from 0.00178503 to 0.00178503
Heightened Def Con from 0.0017898 to 0.0017898
Heightened Def Con from 0.00178995 to 0.00178996
Heightened Def Con from 0.00178996 to 0.00178996
Heightened Def Con from 0.00178997 to 0.00178998
Heightened Def Con from 0.00179472 to 0.00179472
Heightened Def Con from 0.0017949 to 0.0017949
Heightened Def Con from 0.0017949 to 0.0017949
Heightened Def Con from 0.00179964 to 0.00179964
Heightened Def Con from 0.00179984 to 0.00179985
Heightened Def Con from 0.00179985 to 0.00179985
Heightened Def Con from 0.00179986 to 0.00179986
Heightened Def Con from 0.00180456 to 0.00180456
Heightened Def Con from 0.00180456 to 0.00180456
Heightened Def Con from 0.00180479 to 0.00180479
Heightened Def Con from 0.00180479 to 0.00180479
Heightened Def Con from 0.0018048 to 0.00180481
Heightened Def Con from 0.00180973 to 0.00180974
Heightened Def Con from 0.00180974 to 0.00180974
Heightened Def Con from 0.00180975 to 0.00180976
Heightened Def Con from 0.0018144 to 0.0018144
Heightened Def Con from 0.00181468 to 0.00181468
Heightened Def Con from 0.00181468 to 0.00181468
Heightened Def Con from 0.00181469 to 0.0018147
Heightened Def Con from 0.00181931 to 0.00181931
Heightened Def Con from 0.00181962 to 0.00181963
Heightened Def Con from 0.00181963 to 0.00181963
Heightened Def Con from 0.00181964 to 0.00181965
Heightened Def Con from 0.00182457 to 0.00182458
Heightened Def Con from 0.00182458 to 0.00182458
Heightened Def Con from 0.00182459 to 0.0018246
Heightened Def Con from 0.00182914 to 0.00182914
Heightened Def Con from 0.00182914 to 0.00182914
Heightened Def Con from 0.00182952 to 0.00182952
Heightened Def Con from 0.00182953 to 0.00182953
Heightened Def Con from 0.00182954 to 0.00182954
Heightened Def Con from 0.00183405 to 0.00183405
Heightened Def Con from 0.00183447 to 0.00183447
Heightened Def Con from 0.00183449 to 0.00183449
Heightened Def Con from 0.00183897 to 0.00183897
Heightened Def Con from 0.00183942 to 0.00183942
Heightened Def Con from 0.00183942 to 0.00183942
Heightened Def Con from 0.00183944 to 0.00183944
Heightened Def Con from 0.00184387 to 0.00184387
Heightened Def Con from 0.00184437 to 0.00184437
Heightened Def Con from 0.00184438 to 0.00184438
Heightened Def Con from 0.00184439 to 0.00184439
Heightened Def Con from 0.00184879 to 0.00184879
Heightened Def Con from 0.00184932 to 0.00184933
Heightened Def Con from 0.00184933 to 0.00184933
Heightened Def Con from 0.00184934 to 0.00184935
Heightened Def Con from 0.0018537 to 0.0018537
Heightened Def Con from 0.0018537 to 0.0018537
Heightened Def Con from 0.00185427 to 0.00185428
Heightened Def Con from 0.00185428 to 0.00185428
Heightened Def Con from 0.00185429 to 0.0018543
Heightened Def Con from 0.00185861 to 0.00185861
Heightened Def Con from 0.00185861 to 0.00185861
Heightened Def Con from 0.00185923 to 0.00185923
Heightened Def Con from 0.00185923 to 0.00185923
Heightened Def Con from 0.00185925 to 0.00185925
Heightened Def Con from 0.00186352 to 0.00186352
Heightened Def Con from 0.00186418 to 0.00186419
Heightened Def Con from 0.00186419 to 0.00186419
Heightened Def Con from 0.0018642 to 0.00186421
Heightened Def Con from 0.00186842 to 0.00186842
Heightened Def Con from 0.00186914 to 0.00186914
Heightened Def Con from 0.00186914 to 0.00186914
Heightened Def Con from 0.00186915 to 0.00186916
Heightened Def Con from 0.00187332 to 0.00187332
Heightened Def Con from 0.00187409 to 0.0018741
Heightened Def Con from 0.0018741 to 0.0018741
Heightened Def Con from 0.00187411 to 0.00187412
Heightened Def Con from 0.00187823 to 0.00187823
Heightened Def Con from 0.00187905 to 0.00187906
Heightened Def Con from 0.00187906 to 0.00187906
Heightened Def Con from 0.00187907 to 0.00187907
Heightened Def Con from 0.00188313 to 0.00188313
Heightened Def Con from 0.00188401 to 0.00188401
Heightened Def Con from 0.00188402 to 0.00188403
Heightened Def Con from 0.00188804 to 0.00188804
Heightened Def Con from 0.00188804 to 0.00188804
Heightened Def Con from 0.00188896 to 0.00188897
Heightened Def Con from 0.00188897 to 0.00188897
Heightened Def Con from 0.00188898 to 0.00188899
Heightened Def Con from 0.00189294 to 0.00189294
Heightened Def Con from 0.00189393 to 0.00189393
Heightened Def Con from 0.00189393 to 0.00189393
Heightened Def Con from 0.00189394 to 0.00189395
Heightened Def Con from 0.00189784 to 0.00189784
Heightened Def Con from 0.00189784 to 0.00189784
Heightened Def Con from 0.00189888 to 0.00189889
Heightened Def Con from 0.00189889 to 0.00189889
Heightened Def Con from 0.0018989 to 0.00189891
Heightened Def Con from 0.00190274 to 0.00190274
Heightened Def Con from 0.00190274 to 0.00190274
Heightened Def Con from 0.00190385 to 0.00190385
Heightened Def Con from 0.00190386 to 0.00190387
Heightened Def Con from 0.00190765 to 0.00190765
Heightened Def Con from 0.00190881 to 0.00190881
Heightened Def Con from 0.00190882 to 0.00190883
Heightened Def Con from 0.00191254 to 0.00191254
Heightened Def Con from 0.00191254 to 0.00191254
Heightened Def Con from 0.00191376 to 0.00191377
Heightened Def Con from 0.00191377 to 0.00191377
Heightened Def Con from 0.00191378 to 0.00191379
Heightened Def Con from 0.00191744 to 0.00191744
Heightened Def Con from 0.00191744 to 0.00191744
Heightened Def Con from 0.00191873 to 0.00191873
Heightened Def Con from 0.00191873 to 0.00191873
Heightened Def Con from 0.00191874 to 0.00191876
Heightened Def Con from 0.00192234 to 0.00192234
Heightened Def Con from 0.00192369 to 0.0019237
Heightened Def Con from 0.0019237 to 0.0019237
Heightened Def Con from 0.00192371 to 0.00192372
Heightened Def Con from 0.00192724 to 0.00192724
Heightened Def Con from 0.00192865 to 0.00192866
Heightened Def Con from 0.00192866 to 0.00192866
Heightened Def Con from 0.00192867 to 0.00192868
Heightened Def Con from 0.00193213 to 0.00193213
Heightened Def Con from 0.00193362 to 0.00193362
Heightened Def Con from 0.00193363 to 0.00193364
Heightened Def Con from 0.00193704 to 0.00193704
Heightened Def Con from 0.00193858 to 0.00193858
Heightened Def Con from 0.00193859 to 0.00193859
Heightened Def Con from 0.0019386 to 0.0019386
Heightened Def Con from 0.00194193 to 0.00194193
Heightened Def Con from 0.00194355 to 0.00194355
Heightened Def Con from 0.00194356 to 0.00194357
Heightened Def Con from 0.00194682 to 0.00194682
Heightened Def Con from 0.00194682 to 0.00194682
[...]
Heightened Def Con from 0.00448911 to 0.00448911
Heightened Def Con from 0.00448911 to 0.00448911
Heightened Def Con from 0.00449144 to 0.00449144
Heightened Def Con from 0.00449145 to 0.00449146
Heightened Def Con from 0.00449401 to 0.00449401
Heightened Def Con from 0.00449642 to 0.00449642
Heightened Def Con from 0.00449891 to 0.00449891
Heightened Def Con from 0.00450138 to 0.00450138
Heightened Def Con from 0.00450139 to 0.00450141
Heightened Def Con from 0.00450381 to 0.00450381
Heightened Def Con from 0.00450636 to 0.00450636
Heightened Def Con from 0.00450636 to 0.00450638
Heightened Def Con from 0.00450871 to 0.00450871
Heightened Def Con from 0.00450871 to 0.00450873
Heightened Def Con from 0.00451133 to 0.00451133
Heightened Def Con from 0.00451133 to 0.00451136
Heightened Def Con from 0.00451361 to 0.00451361
Heightened Def Con from 0.00451361 to 0.00451363
Heightened Def Con from 0.0045163 to 0.0045163
Heightened Def Con from 0.0045163 to 0.0045163
Heightened Def Con from 0.00451851 to 0.00451851
Heightened Def Con from 0.00451851 to 0.00451853
Heightened Def Con from 0.00452127 to 0.00452127
Heightened Def Con from 0.0045234 to 0.0045234
Heightened Def Con from 0.00452625 to 0.00452625
Heightened Def Con from 0.0045283 to 0.0045283
Heightened Def Con from 0.00453122 to 0.00453124
Heightened Def Con from 0.0045332 to 0.0045332
Heightened Def Con from 0.00453619 to 0.00453619
Heightened Def Con from 0.0045381 to 0.0045381
Heightened Def Con from 0.00454116 to 0.00454116
Heightened Def Con from 0.00454116 to 0.00454116
Heightened Def Con from 0.004543 to 0.004543
Heightened Def Con from 0.00454613 to 0.00454613
Heightened Def Con from 0.0045479 to 0.0045479
Heightened Def Con from 0.00455109 to 0.00455109
Heightened Def Con from 0.0045528 to 0.0045528
Heightened Def Con from 0.0045528 to 0.0045528
Heightened Def Con from 0.00455607 to 0.00455607
Heightened Def Con from 0.0045577 to 0.0045577
Heightened Def Con from 0.00456104 to 0.00456104
Heightened Def Con from 0.0045626 to 0.0045626
Heightened Def Con from 0.00456261 to 0.00456261
Heightened Def Con from 0.00456262 to 0.00456262
Heightened Def Con from 0.00456601 to 0.00456601
Heightened Def Con from 0.00456751 to 0.00456751
Heightened Def Con from 0.00456752 to 0.00456753
Heightened Def Con from 0.00457097 to 0.00457097
Heightened Def Con from 0.00457097 to 0.00457097
Heightened Def Con from 0.00457241 to 0.00457241
Heightened Def Con from 0.00457241 to 0.00457241
Heightened Def Con from 0.00457242 to 0.00457243
Heightened Def Con from 0.00457594 to 0.00457594
Heightened Def Con from 0.0045773 to 0.00457731
Heightened Def Con from 0.00457731 to 0.00457731
Heightened Def Con from 0.00457732 to 0.00457732
Heightened Def Con from 0.0045809 to 0.0045809
Heightened Def Con from 0.0045809 to 0.00458091
Heightened Def Con from 0.00458221 to 0.00458221
Heightened Def Con from 0.00458221 to 0.00458221
Heightened Def Con from 0.00458222 to 0.00458224
Heightened Def Con from 0.00458587 to 0.00458587
Heightened Def Con from 0.00458712 to 0.00458712
Heightened Def Con from 0.00458713 to 0.00458714
Heightened Def Con from 0.00459084 to 0.00459084
Heightened Def Con from 0.00459201 to 0.00459202
Heightened Def Con from 0.00459202 to 0.00459202
Heightened Def Con from 0.00459203 to 0.00459204
Heightened Def Con from 0.0045958 to 0.0045958
Heightened Def Con from 0.00459692 to 0.00459692
Heightened Def Con from 0.00459693 to 0.00459693
Heightened Def Con from 0.00460076 to 0.00460077
Heightened Def Con from 0.00460182 to 0.00460183
Heightened Def Con from 0.00460183 to 0.00460183
Heightened Def Con from 0.00460184 to 0.00460185
Heightened Def Con from 0.00460573 to 0.00460573
Heightened Def Con from 0.00460674 to 0.00460674
Heightened Def Con from 0.00460675 to 0.00460676
Heightened Def Con from 0.0046107 to 0.0046107
Heightened Def Con from 0.00461164 to 0.00461164
Heightened Def Con from 0.00461165 to 0.00461166
Heightened Def Con from 0.00461566 to 0.00461566
Heightened Def Con from 0.00461655 to 0.00461655
Heightened Def Con from 0.00461656 to 0.00461657
Heightened Def Con from 0.00462061 to 0.00462062
Heightened Def Con from 0.00462062 to 0.00462062
Heightened Def Con from 0.00462145 to 0.00462146
Heightened Def Con from 0.00462146 to 0.00462146
Heightened Def Con from 0.00462147 to 0.00462148
Heightened Def Con from 0.00462557 to 0.00462557
Heightened Def Con from 0.00462637 to 0.00462637
Heightened Def Con from 0.00462638 to 0.00462638
Heightened Def Con from 0.00463054 to 0.00463054
Heightened Def Con from 0.00463127 to 0.00463127
Heightened Def Con from 0.00463128 to 0.00463128
Heightened Def Con from 0.00463129 to 0.00463129
Heightened Def Con from 0.00463549 to 0.00463549
Heightened Def Con from 0.00463549 to 0.00463549
Heightened Def Con from 0.00463618 to 0.00463618
Heightened Def Con from 0.00463619 to 0.00463619
Heightened Def Con from 0.0046362 to 0.0046362
Heightened Def Con from 0.00464045 to 0.00464045
Heightened Def Con from 0.00464045 to 0.00464045
Heightened Def Con from 0.0046411 to 0.0046411
Heightened Def Con from 0.00464111 to 0.00464111
Heightened Def Con from 0.00464541 to 0.00464541
Heightened Def Con from 0.00464601 to 0.00464601
Heightened Def Con from 0.00464602 to 0.00464603
Heightened Def Con from 0.00465037 to 0.00465037
Heightened Def Con from 0.00465092 to 0.00465092
Heightened Def Con from 0.00465092 to 0.00465092
Heightened Def Con from 0.00465093 to 0.00465094
Heightened Def Con from 0.00465532 to 0.00465532
Heightened Def Con from 0.00465532 to 0.00465532
Heightened Def Con from 0.00465583 to 0.00465583
Heightened Def Con from 0.00465583 to 0.00465583
Heightened Def Con from 0.00465584 to 0.00465585
Heightened Def Con from 0.00466027 to 0.00466027
Heightened Def Con from 0.00466027 to 0.00466027
Heightened Def Con from 0.00466074 to 0.00466074
Heightened Def Con from 0.00466075 to 0.00466075
Heightened Def Con from 0.00466076 to 0.00466076
Heightened Def Con from 0.00466522 to 0.00466522
Heightened Def Con from 0.00466565 to 0.00466566
Heightened Def Con from 0.00466566 to 0.00466566
Heightened Def Con from 0.00466567 to 0.00466568
Heightened Def Con from 0.00467018 to 0.00467018
Heightened Def Con from 0.00467057 to 0.00467057
Heightened Def Con from 0.00467058 to 0.00467058
Heightened Def Con from 0.00467059 to 0.00467059
Heightened Def Con from 0.00467513 to 0.00467513
Heightened Def Con from 0.00467549 to 0.00467549
Heightened Def Con from 0.00467549 to 0.00467549
Heightened Def Con from 0.0046755 to 0.00467551
Heightened Def Con from 0.00468008 to 0.00468008
Heightened Def Con from 0.00468008 to 0.00468008
Heightened Def Con from 0.0046804 to 0.00468041
Heightened Def Con from 0.00468041 to 0.00468041
Heightened Def Con from 0.00468042 to 0.00468043
Heightened Def Con from 0.00468503 to 0.00468503
Heightened Def Con from 0.00468532 to 0.00468533
Heightened Def Con from 0.00468533 to 0.00468533
Heightened Def Con from 0.00468534 to 0.00468535
Heightened Def Con from 0.00468998 to 0.00468998
Heightened Def Con from 0.00469024 to 0.00469025
Heightened Def Con from 0.00469025 to 0.00469025
Heightened Def Con from 0.00469026 to 0.00469027
Heightened Def Con from 0.00469492 to 0.00469492
Heightened Def Con from 0.00469516 to 0.00469517
Heightened Def Con from 0.00469517 to 0.00469517
Heightened Def Con from 0.00469518 to 0.00469518
Heightened Def Con from 0.00469987 to 0.00469987
Heightened Def Con from 0.00470008 to 0.00470009
Heightened Def Con from 0.00470009 to 0.00470009
Heightened Def Con from 0.0047001 to 0.00470011
Heightened Def Con from 0.00470481 to 0.00470481
Heightened Def Con from 0.00470481 to 0.00470481
Heightened Def Con from 0.004705 to 0.00470501
Heightened Def Con from 0.00470501 to 0.00470501
Heightened Def Con from 0.00470502 to 0.00470503
Heightened Def Con from 0.00470975 to 0.00470975
Heightened Def Con from 0.00470992 to 0.00470993
Heightened Def Con from 0.00470993 to 0.00470993
Heightened Def Con from 0.00470994 to 0.00470995
Heightened Def Con from 0.00471469 to 0.00471469
Heightened Def Con from 0.00471485 to 0.00471485
Heightened Def Con from 0.00471485 to 0.00471485
Heightened Def Con from 0.00471486 to 0.00471487
Heightened Def Con from 0.00471964 to 0.00471964
Heightened Def Con from 0.00471977 to 0.00471977
Heightened Def Con from 0.00471978 to 0.00471978
Heightened Def Con from 0.00471979 to 0.00471979
Heightened Def Con from 0.00472458 to 0.00472458
Heightened Def Con from 0.00472469 to 0.00472469
Heightened Def Con from 0.0047247 to 0.0047247
Heightened Def Con from 0.00472471 to 0.00472472
Heightened Def Con from 0.00472951 to 0.00472951
Heightened Def Con from 0.00472962 to 0.00472962
Heightened Def Con from 0.00472963 to 0.00472964
Heightened Def Con from 0.00473445 to 0.00473445
Heightened Def Con from 0.00473445 to 0.00473445
Heightened Def Con from 0.00473454 to 0.00473455
Heightened Def Con from 0.00473455 to 0.00473455
Heightened Def Con from 0.00473456 to 0.00473457
Heightened Def Con from 0.00473939 to 0.00473939
Heightened Def Con from 0.00473947 to 0.00473948
Heightened Def Con from 0.00473948 to 0.00473948
Heightened Def Con from 0.00474432 to 0.00474432
Heightened Def Con from 0.0047444 to 0.0047444
Heightened Def Con from 0.00474441 to 0.00474441
Heightened Def Con from 0.00474442 to 0.00474442
Heightened Def Con from 0.00474925 to 0.00474925
Heightened Def Con from 0.00474926 to 0.00474926
Heightened Def Con from 0.00474933 to 0.00474933
Heightened Def Con from 0.00474934 to 0.00474934
Heightened Def Con from 0.00474935 to 0.00474935
Heightened Def Con from 0.00475419 to 0.00475419
Heightened Def Con from 0.00475426 to 0.00475427
Heightened Def Con from 0.00475427 to 0.00475427
Heightened Def Con from 0.00475428 to 0.00475429
Heightened Def Con from 0.00475912 to 0.00475912
Heightened Def Con from 0.0047592 to 0.0047592
Heightened Def Con from 0.0047592 to 0.0047592
Heightened Def Con from 0.00475921 to 0.00475922
Heightened Def Con from 0.00476404 to 0.00476404
Heightened Def Con from 0.00476414 to 0.00476414
Heightened Def Con from 0.00476414 to 0.00476414
Heightened Def Con from 0.00476415 to 0.00476416
Heightened Def Con from 0.00476897 to 0.00476897
Heightened Def Con from 0.00476897 to 0.00476897
Heightened Def Con from 0.00476908 to 0.00476908
Heightened Def Con from 0.00476909 to 0.0047691
Heightened Def Con from 0.0047739 to 0.0047739
Heightened Def Con from 0.0047739 to 0.0047739
Heightened Def Con from 0.00477401 to 0.00477402
Heightened Def Con from 0.00477402 to 0.00477402
Heightened Def Con from 0.00477403 to 0.00477404
Heightened Def Con from 0.00477883 to 0.00477883
Heightened Def Con from 0.00477895 to 0.00477896
Heightened Def Con from 0.00477896 to 0.00477896
Heightened Def Con from 0.00477897 to 0.00477898
Heightened Def Con from 0.00478375 to 0.00478375
Heightened Def Con from 0.00478375 to 0.00478375
Heightened Def Con from 0.0047839 to 0.0047839
Heightened Def Con from 0.0047839 to 0.0047839
Heightened Def Con from 0.00478391 to 0.00478392
Heightened Def Con from 0.00478868 to 0.00478868
Heightened Def Con from 0.00478884 to 0.00478884
Heightened Def Con from 0.00478885 to 0.00478885
Heightened Def Con from 0.00478886 to 0.00478886
Heightened Def Con from 0.0047936 to 0.0047936
Heightened Def Con from 0.00479379 to 0.00479379
Heightened Def Con from 0.0047938 to 0.00479381
Heightened Def Con from 0.00479852 to 0.00479852
Heightened Def Con from 0.00479873 to 0.00479873
Heightened Def Con from 0.00479873 to 0.00479873
Heightened Def Con from 0.00479874 to 0.00479875
Heightened Def Con from 0.00480344 to 0.00480344
Heightened Def Con from 0.00480344 to 0.00480344
Heightened Def Con from 0.00480367 to 0.00480368
Heightened Def Con from 0.00480368 to 0.00480368
Heightened Def Con from 0.00480836 to 0.00480836
Heightened Def Con from 0.00480861 to 0.00480862
Heightened Def Con from 0.00480862 to 0.00480862
Heightened Def Con from 0.00480863 to 0.00480864
Heightened Def Con from 0.00481328 to 0.00481328
Heightened Def Con from 0.00481328 to 0.00481328
Heightened Def Con from 0.00481356 to 0.00481357
Heightened Def Con from 0.00481357 to 0.00481357
Heightened Def Con from 0.00481358 to 0.00481358
Heightened Def Con from 0.00481819 to 0.00481819
Heightened Def Con from 0.00481819 to 0.00481819
Heightened Def Con from 0.00481851 to 0.00481851
Heightened Def Con from 0.00481851 to 0.00481851
Heightened Def Con from 0.00481852 to 0.00481853
Heightened Def Con from 0.00482311 to 0.00482311
Heightened Def Con from 0.00482311 to 0.00482311
Heightened Def Con from 0.00482346 to 0.00482346
Heightened Def Con from 0.00482347 to 0.00482348
Heightened Def Con from 0.00482802 to 0.00482802
Heightened Def Con from 0.0048284 to 0.00482841
Heightened Def Con from 0.00482841 to 0.00482841
Heightened Def Con from 0.00482842 to 0.00482843
Heightened Def Con from 0.00483293 to 0.00483293
Heightened Def Con from 0.00483336 to 0.00483336
Heightened Def Con from 0.00483337 to 0.00483337
Heightened Def Con from 0.00483785 to 0.00483785
Heightened Def Con from 0.0048383 to 0.00483831
Heightened Def Con from 0.00483831 to 0.00483831
Heightened Def Con from 0.00483832 to 0.00483833
Heightened Def Con from 0.00484276 to 0.00484276
Heightened Def Con from 0.00484276 to 0.00484276
Heightened Def Con from 0.00484326 to 0.00484326
Heightened Def Con from 0.00484327 to 0.00484328
Heightened Def Con from 0.00484767 to 0.00484767
Heightened Def Con from 0.00484821 to 0.00484821
Heightened Def Con from 0.00484822 to 0.00484823
Heightened Def Con from 0.00485258 to 0.00485258
Heightened Def Con from 0.00485316 to 0.00485316
Heightened Def Con from 0.00485316 to 0.00485316
Heightened Def Con from 0.00485317 to 0.00485318
Heightened Def Con from 0.00485749 to 0.00485749
Heightened Def Con from 0.00485812 to 0.00485812
Heightened Def Con from 0.00485813 to 0.00485813
Heightened Def Con from 0.0048624 to 0.0048624
Heightened Def Con from 0.00486307 to 0.00486307
Heightened Def Con from 0.00486308 to 0.00486309
Heightened Def Con from 0.00486731 to 0.00486731
Heightened Def Con from 0.00486802 to 0.00486802
Heightened Def Con from 0.00486802 to 0.00486802
Heightened Def Con from 0.00486804 to 0.00486804
Heightened Def Con from 0.00487221 to 0.00487221
Heightened Def Con from 0.00487221 to 0.00487221
Heightened Def Con from 0.00487298 to 0.00487298
Heightened Def Con from 0.00487299 to 0.004873
Heightened Def Con from 0.00487712 to 0.00487712
Heightened Def Con from 0.00487793 to 0.00487794
Heightened Def Con from 0.00487794 to 0.00487794
Heightened Def Con from 0.00487795 to 0.00487796
Heightened Def Con from 0.00488202 to 0.00488202
Heightened Def Con from 0.00488202 to 0.00488202
Heightened Def Con from 0.00488289 to 0.00488289
Heightened Def Con from 0.00488289 to 0.00488289
Heightened Def Con from 0.00488291 to 0.00488291
Heightened Def Con from 0.00488692 to 0.00488692
Heightened Def Con from 0.00488785 to 0.00488785
Heightened Def Con from 0.00488785 to 0.00488785
Heightened Def Con from 0.00488786 to 0.00488787
Heightened Def Con from 0.00489182 to 0.00489183
Heightened Def Con from 0.00489183 to 0.00489183
Heightened Def Con from 0.00489281 to 0.00489281
Heightened Def Con from 0.00489282 to 0.00489283
Heightened Def Con from 0.00489673 to 0.00489673
Heightened Def Con from 0.00489776 to 0.00489777
Heightened Def Con from 0.00489777 to 0.00489777
Heightened Def Con from 0.00489778 to 0.00489779
Heightened Def Con from 0.00490163 to 0.00490163
Heightened Def Con from 0.00490272 to 0.00490273
Heightened Def Con from 0.00490273 to 0.00490273
Heightened Def Con from 0.00490274 to 0.00490275
Heightened Def Con from 0.00490653 to 0.00490653
Heightened Def Con from 0.00490768 to 0.00490769
Heightened Def Con from 0.00490769 to 0.00490769
Heightened Def Con from 0.0049077 to 0.00490771
Heightened Def Con from 0.00491143 to 0.00491143
Heightened Def Con from 0.00491143 to 0.00491143
Heightened Def Con from 0.00491265 to 0.00491265
Heightened Def Con from 0.00491265 to 0.00491265
Heightened Def Con from 0.00491266 to 0.00491267
Heightened Def Con from 0.00491633 to 0.00491633
Heightened Def Con from 0.00491761 to 0.00491761
Heightened Def Con from 0.00491761 to 0.00491761
Heightened Def Con from 0.00491762 to 0.00491764
Heightened Def Con from 0.00492123 to 0.00492123
Heightened Def Con from 0.00492257 to 0.00492258
Heightened Def Con from 0.00492258 to 0.00492258
Heightened Def Con from 0.00492259 to 0.0049226
Heightened Def Con from 0.00492612 to 0.00492612
Heightened Def Con from 0.00492612 to 0.00492612
Heightened Def Con from 0.00492754 to 0.00492754
Heightened Def Con from 0.00492755 to 0.00492756
Heightened Def Con from 0.00493102 to 0.00493102
Heightened Def Con from 0.00493102 to 0.00493102
Heightened Def Con from 0.0049325 to 0.0049325
Heightened Def Con from 0.00493251 to 0.00493252
Heightened Def Con from 0.00493592 to 0.00493592
Heightened Def Con from 0.00493747 to 0.00493747
Heightened Def Con from 0.00493748 to 0.00493748
Heightened Def Con from 0.00494082 to 0.00494082
Heightened Def Con from 0.00494243 to 0.00494243
Heightened Def Con from 0.00494244 to 0.00494244
Heightened Def Con from 0.00494571 to 0.00494571
Heightened Def Con from 0.00494739 to 0.00494739
Heightened Def Con from 0.00494739 to 0.00494739
Heightened Def Con from 0.00495061 to 0.00495061
Heightened Def Con from 0.00495235 to 0.00495236
Heightened Def Con from 0.00495236 to 0.00495236
Heightened Def Con from 0.0049555 to 0.0049555
Heightened Def Con from 0.00495551 to 0.00495551
Heightened Def Con from 0.00495732 to 0.00495732
Heightened Def Con from 0.0049604 to 0.0049604
Heightened Def Con from 0.0049604 to 0.0049604
Heightened Def Con from 0.00496229 to 0.00496229
Heightened Def Con from 0.0049653 to 0.0049653
Heightened Def Con from 0.00496725 to 0.00496725
Heightened Def Con from 0.00497019 to 0.00497019
Heightened Def Con from 0.00497222 to 0.00497222
Heightened Def Con from 0.00497508 to 0.00497508
Heightened Def Con from 0.00497508 to 0.00497508
Heightened Def Con from 0.00497719 to 0.00497719
Heightened Def Con from 0.00497998 to 0.00497998
Heightened Def Con from 0.00497998 to 0.00497998
Heightened Def Con from 0.00498215 to 0.00498215
Heightened Def Con from 0.00498216 to 0.00498217
Heightened Def Con from 0.00498487 to 0.00498487
Heightened Def Con from 0.00498712 to 0.00498712
Heightened Def Con from 0.00498977 to 0.00498977
Heightened Def Con from 0.00498977 to 0.00498977
Heightened Def Con from 0.00499209 to 0.00499209
Heightened Def Con from 0.00499466 to 0.00499466
Heightened Def Con from 0.00499705 to 0.00499705
Heightened Def Con from 0.00499705 to 0.00499707
Heightened Def Con from 0.00499955 to 0.00499955
Heightened Def Con from 0.00499955 to 0.00499957
N-Period=1
Fourier components of V(vo)
DC component:-0.150201

Harmonic	Frequency	 Fourier 	Normalized	 Phase  	Normalized
 Number 	  [Hz]   	Component	 Component	[degree]	Phase [deg]
    1   	1.000e+03	2.802e+01	1.000e+00	   -1.51°	    0.00°
    2   	2.000e+03	2.293e-02	8.182e-04	   85.90°	   87.40°
    3   	3.000e+03	1.402e-01	5.003e-03	  172.53°	  174.03°
    4   	4.000e+03	7.594e-03	2.710e-04	 -125.11°	 -123.60°
    5   	5.000e+03	3.144e-02	1.122e-03	    7.02°	    8.53°
    6   	6.000e+03	1.061e-02	3.785e-04	   96.18°	   97.68°
    7   	7.000e+03	4.866e-02	1.737e-03	  166.23°	  167.74°
    8   	8.000e+03	4.858e-03	1.734e-04	  146.74°	  148.24°
    9   	9.000e+03	3.173e-02	1.133e-03	   -5.02°	   -3.52°
Total Harmonic Distortion: 0.561297%(5.350256%)



Date: Sun Mar 01 23:43:34 2020
Total elapsed time: 2402.064 seconds.

tnom = 27
temp = 27
method = modified trap
totiter = 19354593
traniter = 19354593
tranpoints = 5379736
accept = 4013515
rejected = 1369439
matrix size = 370
fillins = 553
solver = Alternate
Thread vector: 96.7/54.7[5] 26.5/14.7[5] 16.5/5.2[5] 5.0/4.0[3]  2592/500
Matrix Compiler1: 63.97 KB object code size  24.5/17.4/[6.1]
Matrix Compiler2: 42.55 KB object code size  11.5/13.8/[4.2]

