Circuit: * C:\Users\Ema\Desktop\DCE\DISTORSION\Distorsion_10k.asc

Questionable use of curly braces in "b§e_abmgate yint 0 v={if(v(a)>{{vthresh}},{{vss}},{{vdd}})}"
    Error: undefined symbol in: "if([v](a)>((vthresh)),((vss)),((vdd)))"
Questionable use of curly braces in "b§e_abmgate yint 0 v={if(v(a)>{{vthresh}}&v(b)>{{vthresh}},{{vdd}},{{vss}})}"
    Error: undefined symbol in: "if([v](a)>((vthresh))&v(b)>((vthresh)),((vdd)),((vss)))"
Questionable use of curly braces in "b§e_abmgate yint 0 v={if(v(a)>{{vthresh}}&v(b)>{{vthresh}},{{vdd}},{{vss}})}"
    Error: undefined symbol in: "if([v](a)>((vthresh))&v(b)>((vthresh)),((vdd)),((vss)))"
Questionable use of curly braces in "b§e_abmgate yint 0 v={if(v(a)>{{vthresh}},{{vss}},{{vdd}})}"
    Error: undefined symbol in: "if([v](a)>((vthresh)),((vss)),((vdd)))"
Questionable use of curly braces in "b§e_abmgate yint 0 v={if(v(a)>{{vthresh}}&v(b)>{{vthresh}},{{vdd}},{{vss}})}"
    Error: undefined symbol in: "if([v](a)>((vthresh))&v(b)>((vthresh)),((vdd)),((vss)))"
Questionable use of curly braces in "b§e_abmgate yint 0 v={if(v(a)>{{vthresh}},{{vss}},{{vdd}})}"
    Error: undefined symbol in: "if([v](a)>((vthresh)),((vss)),((vdd)))"
WARNING: Less than two connections to node NC_03.  This node is used by V:U4:_V11.
WARNING: Less than two connections to node NC_02.  This node is used by V:U4:_V12.
WARNING: Less than two connections to node NC_01.  This node is used by V:U4:_V13.
WARNING: Less than two connections to node NC_04.  This node is used by V:U4:_V14.
WARNING: Less than two connections to node -15V.  This node is used by V6.
Instance "m:u4:_m12:1": Length shorter than recommended for a level 1 MOSFET.
Instance "m:u4:_m14:1": Length shorter than recommended for a level 1 MOSFET.
Instance "m:u4:_m15:1": Length shorter than recommended for a level 1 MOSFET.
Instance "m:u4:_m13:1": Length shorter than recommended for a level 1 MOSFET.
Instance "m:m2:2": Length shorter than recommended for a level 3 MOSFET.
Instance "m:m2:1": Length shorter than recommended for a level 3 MOSFET.
Instance "m:m1:2": Length shorter than recommended for a level 3 MOSFET.
Instance "m:m1:1": Length shorter than recommended for a level 3 MOSFET.
Per .tran options, skipping operating point for transient analysis.
Ignoring empty pin current: Ix(u4:vcci_1)
Changing Tseed to 2.92969e-010
Changing Tseed to 2.92969e-012
Changing Tseed to 2.92969e-009
Changing Tseed to 2.92969e-013
Changing Tseed to 2.92969e-008
Changing Tseed to 2.92969e-014
Changing Tseed to 2.92969e-007
Changing Tseed to 2.92969e-015
Changing Tseed to 2.92969e-006
Changing Tseed to 2.92969e-016
Changing Tseed to 2.92969e-005
Changing Tseed to 2.92969e-017
Heightened Def Con from 0 Changing Tseed to 1e-009
Changing Tseed to 1e-011
Changing Tseed to 1e-008
Changing Tseed to 1e-012
Changing Tseed to 1e-007
Changing Tseed to 1e-013
Changing Tseed to 1e-006
Changing Tseed to 1e-014
Changing Tseed to 1e-005
Changing Tseed to 1e-015
Changing Tseed to 0.0001
Changing Tseed to 1e-016
+Changing Tseed to 1e-009
Changing Tseed to 1e-011
Changing Tseed to 1e-008
Changing Tseed to 1e-012
Changing Tseed to 1e-007
Changing Tseed to 1e-013
Changing Tseed to 1e-006
Changing Tseed to 1e-014
Changing Tseed to 1e-005
Changing Tseed to 1e-015
Changing Tseed to 0.0001
Changing Tseed to 1e-016
+Changing Tseed to 1e-009
Changing Tseed to 1e-011
Changing Tseed to 1e-008
Changing Tseed to 1e-012
Changing Tseed to 1e-007
Changing Tseed to 1e-013
Changing Tseed to 1e-006
Changing Tseed to 1e-014
Changing Tseed to 1e-005
Changing Tseed to 1e-015
Changing Tseed to 0.0001
Changing Tseed to 1e-016
+Changing Tseed to 1e-009
Changing Tseed to 1e-011
Changing Tseed to 1e-008
Changing Tseed to 1e-012
Changing Tseed to 1e-007
Changing Tseed to 1e-013
Changing Tseed to 1e-006
Changing Tseed to 1e-014
Changing Tseed to 1e-005
Changing Tseed to 1e-015
Changing Tseed to 0.0001
Changing Tseed to 1e-016
+Changing Tseed to 1e-009
Changing Tseed to 1e-011
Changing Tseed to 1e-008
Changing Tseed to 1e-012
Changing Tseed to 1e-007
Changing Tseed to 1e-013
Changing Tseed to 1e-006
Changing Tseed to 1e-014
Changing Tseed to 1e-005
Changing Tseed to 1e-015
Changing Tseed to 0.0001
Changing Tseed to 1e-016
+Changing Tseed to 1e-009
Changing Tseed to 1e-011
Changing Tseed to 1e-008
Changing Tseed to 1e-012
Changing Tseed to 1e-007
Changing Tseed to 1e-013
Changing Tseed to 1e-006
Changing Tseed to 1e-014
Changing Tseed to 1e-005
Changing Tseed to 1e-015
Changing Tseed to 0.0001
Changing Tseed to 1e-016
+Changing Tseed to 1e-009
Changing Tseed to 1e-011
Changing Tseed to 1e-008
Changing Tseed to 1e-012
Changing Tseed to 1e-007
Changing Tseed to 1e-013
Changing Tseed to 1e-006
Changing Tseed to 1e-014
Changing Tseed to 1e-005
Changing Tseed to 1e-015
Changing Tseed to 0.0001
Changing Tseed to 1e-016
+Changing Tseed to 1e-009
Changing Tseed to 1e-011
Changing Tseed to 1e-008
Changing Tseed to 1e-012
Changing Tseed to 1e-007
Changing Tseed to 1e-013
Changing Tseed to 1e-006
Changing Tseed to 1e-014
Changing Tseed to 1e-005
Changing Tseed to 1e-015
Changing Tseed to 0.0001
Changing Tseed to 1e-016
+Changing Tseed to 1e-009
Changing Tseed to 1e-011
Changing Tseed to 1e-008
Changing Tseed to 1e-012
Changing Tseed to 1e-007
Changing Tseed to 1e-013
Changing Tseed to 1e-006
Changing Tseed to 1e-014
Changing Tseed to 1e-005
Changing Tseed to 1e-015
Changing Tseed to 0.0001
Changing Tseed to 1e-016
+Changing Tseed to 1e-009
Changing Tseed to 1e-011
Changing Tseed to 1e-008
Changing Tseed to 1e-012
Changing Tseed to 1e-007
Changing Tseed to 1e-013
Changing Tseed to 1e-006
Changing Tseed to 1e-014
Changing Tseed to 1e-005
Changing Tseed to 1e-015
Changing Tseed to 0.0001
Changing Tseed to 1e-016
+Changing Tseed to 1e-009
Changing Tseed to 1e-011
Changing Tseed to 1e-008
Changing Tseed to 1e-012
Changing Tseed to 1e-007
Changing Tseed to 1e-013
Changing Tseed to 1e-006
Changing Tseed to 1e-014
Changing Tseed to 1e-005
Changing Tseed to 1e-015
Changing Tseed to 0.0001
Changing Tseed to 1e-016
+Changing Tseed to 1e-009
Changing Tseed to 1e-011
Changing Tseed to 1e-008
Changing Tseed to 1e-012
Changing Tseed to 1e-007
Changing Tseed to 1e-013
Changing Tseed to 1e-006
Changing Tseed to 1e-014
Changing Tseed to 1e-005
Changing Tseed to 1e-015
Changing Tseed to 0.0001
Changing Tseed to 1e-016
+Changing Tseed to 1e-009
Changing Tseed to 1e-011
Changing Tseed to 1e-008
Changing Tseed to 1e-012
Changing Tseed to 1e-007
Changing Tseed to 1e-013
Changing Tseed to 1e-006
Changing Tseed to 1e-014
Changing Tseed to 1e-005
Changing Tseed to 1e-015
Changing Tseed to 0.0001
Changing Tseed to 1e-016
+Changing Tseed to 1e-009
Changing Tseed to 1e-011
Changing Tseed to 1e-008
Changing Tseed to 1e-012
Changing Tseed to 1e-007
Changing Tseed to 1e-013
Changing Tseed to 1e-006
Changing Tseed to 1e-014
Changing Tseed to 1e-005
Changing Tseed to 1e-015
Changing Tseed to 0.0001
Changing Tseed to 1e-016
+Changing Tseed to 1e-009
Changing Tseed to 1e-011
Changing Tseed to 1e-008
Changing Tseed to 1e-012
Changing Tseed to 1e-007
Changing Tseed to 1e-013
Changing Tseed to 1e-006
Changing Tseed to 1e-014
Changing Tseed to 1e-005
Changing Tseed to 1e-015
Changing Tseed to 0.0001
Changing Tseed to 1e-016
+Changing Tseed to 1e-009
Changing Tseed to 1e-011
Changing Tseed to 1e-008
Changing Tseed to 1e-012
Changing Tseed to 1e-007
Changing Tseed to 1e-013
Changing Tseed to 1e-006
Changing Tseed to 1e-014
Changing Tseed to 1e-005
Changing Tseed to 1e-015
Changing Tseed to 0.0001
Changing Tseed to 1e-016
+Changing Tseed to 1e-009
Changing Tseed to 1e-011
Changing Tseed to 1e-008
Changing Tseed to 1e-012
Changing Tseed to 1e-007
Changing Tseed to 1e-013
Changing Tseed to 1e-006
Changing Tseed to 1e-014
Changing Tseed to 1e-005
Changing Tseed to 1e-015
Changing Tseed to 0.0001
Changing Tseed to 1e-016
+Changing Tseed to 1e-009
Changing Tseed to 1e-011
Changing Tseed to 1e-008
Changing Tseed to 1e-012
Changing Tseed to 1e-007
Changing Tseed to 1e-013
Changing Tseed to 1e-006
Changing Tseed to 1e-014
Changing Tseed to 1e-005
Changing Tseed to 1e-015
Changing Tseed to 0.0001
Changing Tseed to 1e-016
+Changing Tseed to 1e-009
Changing Tseed to 1e-011
Changing Tseed to 1e-008
Changing Tseed to 1e-012
Changing Tseed to 1e-007
Changing Tseed to 1e-013
Changing Tseed to 1e-006
Changing Tseed to 1e-014
Changing Tseed to 1e-005
Changing Tseed to 1e-015
Changing Tseed to 0.0001
Changing Tseed to 1e-016
+Changing Tseed to 1e-009
Changing Tseed to 1e-011
Changing Tseed to 1e-008
Changing Tseed to 1e-012
Changing Tseed to 1e-007
Changing Tseed to 1e-013
Changing Tseed to 1e-006
Changing Tseed to 1e-014
Changing Tseed to 1e-005
Changing Tseed to 1e-015
Changing Tseed to 0.0001
Changing Tseed to 1e-016
+Changing Tseed to 1e-009
Changing Tseed to 1e-011
Changing Tseed to 1e-008
Changing Tseed to 1e-012
Changing Tseed to 1e-007
Changing Tseed to 1e-013
Changing Tseed to 1e-006
Changing Tseed to 1e-014
Changing Tseed to 1e-005
Changing Tseed to 1e-015
Changing Tseed to 0.0001
Changing Tseed to 1e-016
+Changing Tseed to 1e-009
Changing Tseed to 1e-011
Changing Tseed to 1e-008
Changing Tseed to 1e-012
Changing Tseed to 1e-007
Changing Tseed to 1e-013
Changing Tseed to 1e-006
Changing Tseed to 1e-014
Changing Tseed to 1e-005
Changing Tseed to 1e-015
Changing Tseed to 0.0001
Changing Tseed to 1e-016
+Changing Tseed to 1e-009
Changing Tseed to 1e-011
Changing Tseed to 1e-008
Changing Tseed to 1e-012
Changing Tseed to 1e-007
Changing Tseed to 1e-013
Changing Tseed to 1e-006
Changing Tseed to 1e-014
Changing Tseed to 1e-005
Changing Tseed to 1e-015
Changing Tseed to 0.0001
Changing Tseed to 1e-016
+Changing Tseed to 1e-009
Changing Tseed to 1e-011
Changing Tseed to 1e-008
Changing Tseed to 1e-012
Changing Tseed to 1e-007
Changing Tseed to 1e-013
Changing Tseed to 1e-006
Changing Tseed to 1e-014
Changing Tseed to 1e-005
Changing Tseed to 1e-015
Changing Tseed to 0.0001
Changing Tseed to 1e-016
+Changing Tseed to 1e-009
Changing Tseed to 1e-011
Changing Tseed to 1e-008
Changing Tseed to 1e-012
Changing Tseed to 1e-007
Changing Tseed to 1e-013
Changing Tseed to 1e-006
Changing Tseed to 1e-014
Changing Tseed to 1e-005
Changing Tseed to 1e-015
Changing Tseed to 0.0001
Changing Tseed to 1e-016
+Changing Tseed to 1e-009
Changing Tseed to 1e-011
Changing Tseed to 1e-008
Changing Tseed to 1e-012
Changing Tseed to 1e-007
Changing Tseed to 1e-013
Changing Tseed to 1e-006
Changing Tseed to 1e-014
Changing Tseed to 1e-005
Changing Tseed to 1e-015
Changing Tseed to 0.0001
Changing Tseed to 1e-016
+Changing Tseed to 1e-009
Changing Tseed to 1e-011
Changing Tseed to 1e-008
Changing Tseed to 1e-012
Changing Tseed to 1e-007
Changing Tseed to 1e-013
Changing Tseed to 1e-006
Changing Tseed to 1e-014
Changing Tseed to 1e-005
Changing Tseed to 1e-015
Changing Tseed to 0.0001
Changing Tseed to 1e-016
+Changing Tseed to 1e-009
Changing Tseed to 1e-011
Changing Tseed to 1e-008
Changing Tseed to 1e-012
Changing Tseed to 1e-007
Changing Tseed to 1e-013
Changing Tseed to 1e-006
Changing Tseed to 1e-014
Changing Tseed to 1e-005
Changing Tseed to 1e-015
Changing Tseed to 0.0001
Changing Tseed to 1e-016
+Changing Tseed to 1e-009
Changing Tseed to 1e-011
Changing Tseed to 1e-008
Changing Tseed to 1e-012
Changing Tseed to 1e-007
Changing Tseed to 1e-013
Changing Tseed to 1e-006
Changing Tseed to 1e-014
Changing Tseed to 1e-005
Changing Tseed to 1e-015
Changing Tseed to 0.0001
Changing Tseed to 1e-016
+Changing Tseed to 1e-009
Changing Tseed to 1e-011
Changing Tseed to 1e-008
Changing Tseed to 1e-012
Changing Tseed to 1e-007
Changing Tseed to 1e-013
Changing Tseed to 1e-006
Changing Tseed to 1e-014
Changing Tseed to 1e-005
Changing Tseed to 1e-015
Changing Tseed to 0.0001
Changing Tseed to 1e-016
+Changing Tseed to 1e-009
Changing Tseed to 1e-011
Changing Tseed to 1e-008
Changing Tseed to 1e-012
Changing Tseed to 1e-007
Changing Tseed to 1e-013
Changing Tseed to 1e-006
Changing Tseed to 1e-014
Changing Tseed to 1e-005
Changing Tseed to 1e-015
Changing Tseed to 0.0001
Changing Tseed to 1e-016
+Changing Tseed to 1e-009
Changing Tseed to 1e-011
Changing Tseed to 1e-008
Changing Tseed to 1e-012
Changing Tseed to 1e-007
Changing Tseed to 1e-013
Changing Tseed to 1e-006
Changing Tseed to 1e-014
Changing Tseed to 1e-005
Changing Tseed to 1e-015
Changing Tseed to 0.0001
Changing Tseed to 1e-016
+Changing Tseed to 1e-009
Changing Tseed to 1e-011
Changing Tseed to 1e-008
Changing Tseed to 1e-012
Changing Tseed to 1e-007
Changing Tseed to 1e-013
Changing Tseed to 1e-006
Changing Tseed to 1e-014
Changing Tseed to 1e-005
Changing Tseed to 1e-015
Changing Tseed to 0.0001
Changing Tseed to 1e-016
+Changing Tseed to 1e-009
Changing Tseed to 1e-011
Changing Tseed to 1e-008
Changing Tseed to 1e-012
Changing Tseed to 1e-007
Changing Tseed to 1e-013
Changing Tseed to 1e-006
Changing Tseed to 1e-014
Changing Tseed to 1e-005
Changing Tseed to 1e-015
Changing Tseed to 0.0001
Changing Tseed to 1e-016
+Changing Tseed to 1e-009
Changing Tseed to 1e-011
Changing Tseed to 1e-008
Changing Tseed to 1e-012
Changing Tseed to 1e-007
Changing Tseed to 1e-013
Changing Tseed to 1e-006
Changing Tseed to 1e-014
Changing Tseed to 1e-005
Changing Tseed to 1e-015
Changing Tseed to 0.0001
Changing Tseed to 1e-016
+Changing Tseed to 1e-009
Changing Tseed to 1e-011
to 1.125e-011
Heightened Def Con from 1.125e-011 +++++++++++++++++++++++++++to 2.26125e-009
Heightened Def Con from 2.26125e-009 +++++++++++++++++++to 2.26394e-009
Heightened Def Con from 2.26394e-009 +++++++++++++++to 2.26398e-009
Heightened Def Con from 1.91525e-008 to 2.01681e-008
Heightened Def Con from 4.9982e-005 to 4.9983e-005
Heightened Def Con from 5.4534e-005 to 5.45341e-005
Heightened Def Con from 5.79354e-005 to 5.79504e-005
Heightened Def Con from 5.91764e-005 to 5.91765e-005
Heightened Def Con from 5.91862e-005 to 5.91944e-005
Heightened Def Con from 6.3197e-005 to 6.3204e-005
Heightened Def Con from 6.38665e-005 to 6.38666e-005
Heightened Def Con from 6.38764e-005 to 6.38854e-005
Heightened Def Con from 6.83441e-005 to 6.83561e-005
Heightened Def Con from 6.86249e-005 to 6.8625e-005
Heightened Def Con from 6.86347e-005 to 6.86437e-005
Heightened Def Con from 7.33818e-005 to 7.33899e-005
Heightened Def Con from 7.34417e-005 to 7.34419e-005
Heightened Def Con from 7.34514e-005 to 7.34604e-005
Heightened Def Con from 7.83101e-005 to 7.83201e-005
Heightened Def Con from 7.84098e-005 to 7.84099e-005
Heightened Def Con from 8.30905e-005 to 8.31025e-005
Heightened Def Con from 8.34858e-005 to 8.3486e-005
Heightened Def Con from 8.34957e-005 to 8.35047e-005
Heightened Def Con from 8.7817e-005 to 8.78281e-005
Heightened Def Con from 8.8644e-005 to 8.86442e-005
Heightened Def Con from 8.86539e-005 to 8.86629e-005
Heightened Def Con from 9.24588e-005 to 9.24698e-005
Heightened Def Con from 9.38798e-005 to 9.38799e-005
Heightened Def Con from 9.38897e-005 to 9.38978e-005
Heightened Def Con from 9.91646e-005 to 9.91647e-005
Heightened Def Con from 0.000101613 to 0.000101623
Heightened Def Con from 0.000104458 to 0.000104458
Heightened Def Con from 0.000109715 to 0.000109715
Heightened Def Con from 0.000114904 to 0.000114904
Heightened Def Con from 0.000115516 to 0.000115517
Heightened Def Con from 0.000119998 to 0.000119998
Heightened Def Con from 0.000120267 to 0.000120267
Heightened Def Con from 0.000124983 to 0.000124985
Heightened Def Con from 0.000124986 to 0.000124986
Heightened Def Con from 0.000125128 to 0.000125128
Heightened Def Con from 0.00012514 to 0.000125147
Heightened Def Con from 0.000129869 to 0.000129869
Heightened Def Con from 0.00013013 to 0.00013013
Heightened Def Con from 0.000130142 to 0.00013015
Heightened Def Con from 0.000134655 to 0.000134657
Heightened Def Con from 0.000134659 to 0.000134659
Heightened Def Con from 0.000135252 to 0.000135252
Heightened Def Con from 0.000135263 to 0.00013527
Heightened Def Con from 0.000139372 to 0.000139372
Heightened Def Con from 0.000140478 to 0.000140478
Heightened Def Con from 0.00014049 to 0.0001405
Heightened Def Con from 0.000144025 to 0.000144027
Heightened Def Con from 0.000144028 to 0.000144028
Heightened Def Con from 0.000145782 to 0.000145786
Heightened Def Con from 0.000145787 to 0.000145787
Heightened Def Con from 0.000148644 to 0.000148652
Heightened Def Con from 0.000148652 to 0.000148653
Heightened Def Con from 0.000151131 to 0.000151131
Heightened Def Con from 0.00015327 to 0.00015327
Heightened Def Con from 0.000153273 to 0.000153292
Heightened Def Con from 0.000156476 to 0.000156476
Heightened Def Con from 0.000157904 to 0.000157904
Heightened Def Con from 0.000157915 to 0.000157924
Heightened Def Con from 0.000161756 to 0.000161758
Heightened Def Con from 0.000161758 to 0.000161759
Heightened Def Con from 0.000162572 to 0.000162577
Heightened Def Con from 0.000162578 to 0.000162578
Heightened Def Con from 0.000162589 to 0.000162596
Heightened Def Con from 0.000166942 to 0.000166942
Heightened Def Con from 0.00016731 to 0.000167315
Heightened Def Con from 0.000167316 to 0.000167316
Heightened Def Con from 0.000167327 to 0.000167334
Heightened Def Con from 0.000172012 to 0.000172013
Heightened Def Con from 0.000172015 to 0.000172015
Heightened Def Con from 0.000172122 to 0.000172122
Heightened Def Con from 0.000172133 to 0.00017214
Heightened Def Con from 0.000176964 to 0.000176965
Heightened Def Con from 0.000177026 to 0.000177031
Heightened Def Con from 0.000177032 to 0.000177032
Heightened Def Con from 0.000177042 to 0.00017705
Heightened Def Con from 0.000181794 to 0.000181795
Heightened Def Con from 0.000182082 to 0.000182087
Heightened Def Con from 0.000182088 to 0.000182088
Heightened Def Con from 0.000182099 to 0.000182106
Heightened Def Con from 0.000186523 to 0.000186523
Heightened Def Con from 0.000187214 to 0.000187219
Heightened Def Con from 0.000187221 to 0.000187221
Heightened Def Con from 0.000187231 to 0.000187238
Heightened Def Con from 0.000191179 to 0.000191179
Heightened Def Con from 0.00019243 to 0.000192436
Heightened Def Con from 0.000192437 to 0.000192437
Heightened Def Con from 0.000192448 to 0.000192459
Heightened Def Con from 0.000195785 to 0.000195785
Heightened Def Con from 0.000197714 to 0.000197714
Heightened Def Con from 0.000200359 to 0.000200359
Heightened Def Con from 0.000203007 to 0.000203007
Heightened Def Con from 0.000203008 to 0.000203008
Heightened Def Con from 0.000204938 to 0.000204938
Heightened Def Con from 0.000208279 to 0.00020828
Heightened Def Con from 0.000209543 to 0.000209543
Heightened Def Con from 0.000209554 to 0.000209564
Heightened Def Con from 0.000213485 to 0.000213487
Heightened Def Con from 0.000213489 to 0.000213489
Heightened Def Con from 0.000214201 to 0.000214202
Heightened Def Con from 0.000214213 to 0.000214219
Heightened Def Con from 0.00021861 to 0.000218611
Heightened Def Con from 0.000218947 to 0.000218948
Heightened Def Con from 0.000218959 to 0.000218965
Heightened Def Con from 0.000223629 to 0.000223629
Heightened Def Con from 0.00022378 to 0.00022378
Heightened Def Con from 0.000223792 to 0.000223798
Heightened Def Con from 0.00022854 to 0.00022854
Heightened Def Con from 0.000228745 to 0.000228745
Heightened Def Con from 0.000228756 to 0.000228762
Heightened Def Con from 0.000233354 to 0.000233354
Heightened Def Con from 0.000233832 to 0.000233832
Heightened Def Con from 0.000233844 to 0.00023385
Heightened Def Con from 0.000238082 to 0.000238084
Heightened Def Con from 0.000238085 to 0.000238086
Heightened Def Con from 0.000239048 to 0.000239054
Heightened Def Con from 0.000242756 to 0.000242756
Heightened Def Con from 0.000244316 to 0.00024432
Heightened Def Con from 0.000244321 to 0.000244321
Heightened Def Con from 0.000244333 to 0.000244342
Heightened Def Con from 0.000247383 to 0.000247385
Heightened Def Con from 0.000247387 to 0.000247387
Heightened Def Con from 0.000249667 to 0.000249667
Heightened Def Con from 0.000252003 to 0.000252003
Heightened Def Con from 0.000252004 to 0.000252025
Heightened Def Con from 0.000255014 to 0.000255014
Heightened Def Con from 0.000256626 to 0.000256629
Heightened Def Con from 0.00025663 to 0.00025663
Heightened Def Con from 0.000260312 to 0.000260313
Heightened Def Con from 0.000260314 to 0.000260314
Heightened Def Con from 0.000261284 to 0.00026129
Heightened Def Con from 0.000261291 to 0.000261291
Heightened Def Con from 0.000261301 to 0.000261313
Heightened Def Con from 0.00026553 to 0.00026553
Heightened Def Con from 0.000266003 to 0.000266008
Heightened Def Con from 0.000266009 to 0.000266009
Heightened Def Con from 0.00026602 to 0.000266027
Heightened Def Con from 0.000270633 to 0.000270634
Heightened Def Con from 0.000270795 to 0.0002708
Heightened Def Con from 0.000270801 to 0.000270801
Heightened Def Con from 0.000270812 to 0.000270819
Heightened Def Con from 0.000275628 to 0.000275628
Heightened Def Con from 0.000275657 to 0.000275657
Heightened Def Con from 0.000275666 to 0.000275676
Heightened Def Con from 0.000280478 to 0.000280478
Heightened Def Con from 0.000280691 to 0.000280691
Heightened Def Con from 0.000280693 to 0.000280696
Heightened Def Con from 0.000280697 to 0.000280697
Heightened Def Con from 0.000280708 to 0.000280715
Heightened Def Con from 0.000285233 to 0.000285233
Heightened Def Con from 0.000285804 to 0.000285804
Heightened Def Con from 0.00028991 to 0.000289911
Heightened Def Con from 0.000290993 to 0.000290999
Heightened Def Con from 0.000291 to 0.000291
Heightened Def Con from 0.00029101 to 0.000291018
Heightened Def Con from 0.000294522 to 0.000294522
Heightened Def Con from 0.000296263 to 0.000296263
Heightened Def Con from 0.000299102 to 0.000299102
Heightened Def Con from 0.000301557 to 0.000301557
Heightened Def Con from 0.000301558 to 0.000301579
Heightened Def Con from 0.000303677 to 0.000303677
Heightened Def Con from 0.000306836 to 0.000306838
Heightened Def Con from 0.000306839 to 0.000306839
Heightened Def Con from 0.000308274 to 0.000308274
Heightened Def Con from 0.000308286 to 0.000308296
Heightened Def Con from 0.000312069 to 0.000312069
Heightened Def Con from 0.000312916 to 0.000312916
Heightened Def Con from 0.000312927 to 0.000312933
Heightened Def Con from 0.000317213 to 0.000317215
Heightened Def Con from 0.000317217 to 0.000317217
Heightened Def Con from 0.000317632 to 0.000317632
Heightened Def Con from 0.000317643 to 0.000317649
Heightened Def Con from 0.00032226 to 0.000322262
Heightened Def Con from 0.000322263 to 0.000322264
Heightened Def Con from 0.000322445 to 0.000322445
Heightened Def Con from 0.000322456 to 0.000322462
Heightened Def Con from 0.000327201 to 0.000327203
Heightened Def Con from 0.000327204 to 0.000327205
Heightened Def Con from 0.000327371 to 0.000327371
Heightened Def Con from 0.000327383 to 0.000327389
Heightened Def Con from 0.000332039 to 0.000332041
Heightened Def Con from 0.000332043 to 0.000332043
Heightened Def Con from 0.000332427 to 0.000332427
Heightened Def Con from 0.000332438 to 0.000332444
Heightened Def Con from 0.000336795 to 0.000336795
Heightened Def Con from 0.000337593 to 0.000337593
Heightened Def Con from 0.000337604 to 0.00033761
Heightened Def Con from 0.00034148 to 0.000341481
Heightened Def Con from 0.000342864 to 0.000342864
Heightened Def Con from 0.000342875 to 0.000342885
Heightened Def Con from 0.000346117 to 0.000346119
Heightened Def Con from 0.00034612 to 0.00034612
Heightened Def Con from 0.000348196 to 0.000348196
Heightened Def Con from 0.000350738 to 0.000350738
Heightened Def Con from 0.000353548 to 0.000353548
Heightened Def Con from 0.000353548 to 0.000353548
Heightened Def Con from 0.000353549 to 0.000353549
Heightened Def Con from 0.00035536 to 0.00035536
Heightened Def Con from 0.000358861 to 0.000358862
Heightened Def Con from 0.000358864 to 0.000358864
Heightened Def Con from 0.000360004 to 0.000360007
Heightened Def Con from 0.000360009 to 0.000360009
Heightened Def Con from 0.000360019 to 0.00036003
Heightened Def Con from 0.000364111 to 0.000364111
Heightened Def Con from 0.000364709 to 0.00036471
Heightened Def Con from 0.00036472 to 0.000364727
Heightened Def Con from 0.000369247 to 0.000369247
Heightened Def Con from 0.000369475 to 0.00036948
Heightened Def Con from 0.000369482 to 0.000369482
Heightened Def Con from 0.000369492 to 0.000369499
Heightened Def Con from 0.000374272 to 0.000374273
Heightened Def Con from 0.000374311 to 0.000374311
Heightened Def Con from 0.00037432 to 0.000374329
Heightened Def Con from 0.000379154 to 0.000379154
Heightened Def Con from 0.000379285 to 0.000379286
Heightened Def Con from 0.000379305 to 0.00037931
Heightened Def Con from 0.000379311 to 0.000379312
Heightened Def Con from 0.000379322 to 0.000379329
Heightened Def Con from 0.000383935 to 0.000383935
Heightened Def Con from 0.000384395 to 0.000384395
Heightened Def Con from 0.000384406 to 0.000384413
Heightened Def Con from 0.000388631 to 0.000388631
Heightened Def Con from 0.000389561 to 0.000389567
Heightened Def Con from 0.000389567 to 0.000389568
Heightened Def Con from 0.000389578 to 0.000389585
Heightened Def Con from 0.000393262 to 0.000393262
Heightened Def Con from 0.000394812 to 0.000394815
Heightened Def Con from 0.000394816 to 0.000394816
Heightened Def Con from 0.000394827 to 0.000394838
Heightened Def Con from 0.000397846 to 0.000397847
Heightened Def Con from 0.000397848 to 0.000397848
Heightened Def Con from 0.000400105 to 0.000400105
Heightened Def Con from 0.000400108 to 0.000400127
Heightened Def Con from 0.000402425 to 0.000402425
Heightened Def Con from 0.000402427 to 0.000402447
Heightened Def Con from 0.000405395 to 0.000405395
Heightened Def Con from 0.000407001 to 0.000407005
Heightened Def Con from 0.000407006 to 0.000407006
Heightened Def Con from 0.000410639 to 0.000410641
Heightened Def Con from 0.000410642 to 0.000410642
Heightened Def Con from 0.000411641 to 0.000411641
Heightened Def Con from 0.000411652 to 0.000411662
Heightened Def Con from 0.000415811 to 0.000415813
Heightened Def Con from 0.000415814 to 0.000415815
Heightened Def Con from 0.000416333 to 0.000416333
Heightened Def Con from 0.000416345 to 0.000416351
Heightened Def Con from 0.00042089 to 0.00042089
Heightened Def Con from 0.000421119 to 0.000421119
Heightened Def Con from 0.00042113 to 0.000421136
Heightened Def Con from 0.000425862 to 0.000425862
Heightened Def Con from 0.000426004 to 0.000426004
Heightened Def Con from 0.000426015 to 0.000426021
Heightened Def Con from 0.000430727 to 0.000430727
Heightened Def Con from 0.000431029 to 0.000431029
Heightened Def Con from 0.00043104 to 0.000431046
Heightened Def Con from 0.000435497 to 0.000435499
Heightened Def Con from 0.000435501 to 0.000435501
Heightened Def Con from 0.000436168 to 0.000436169
Heightened Def Con from 0.00043618 to 0.000436186
Heightened Def Con from 0.000440199 to 0.000440202
Heightened Def Con from 0.000440203 to 0.000440203
Heightened Def Con from 0.000441414 to 0.000441414
Heightened Def Con from 0.000441426 to 0.000441436
Heightened Def Con from 0.000444848 to 0.00044485
Heightened Def Con from 0.000444851 to 0.000444851
Heightened Def Con from 0.000446732 to 0.000446732
Heightened Def Con from 0.00044947 to 0.000449471
Heightened Def Con from 0.000449473 to 0.000449473
Heightened Def Con from 0.000452077 to 0.000452077
Heightened Def Con from 0.000452078 to 0.000452099
Heightened Def Con from 0.000454091 to 0.000454092
Heightened Def Con from 0.000457416 to 0.000457416
Heightened Def Con from 0.000458724 to 0.00045873
Heightened Def Con from 0.000458731 to 0.000458731
Heightened Def Con from 0.000458742 to 0.000458747
Heightened Def Con from 0.000462679 to 0.000462679
Heightened Def Con from 0.000463409 to 0.000463414
Heightened Def Con from 0.000463415 to 0.000463415
Heightened Def Con from 0.000463426 to 0.000463433
Heightened Def Con from 0.000467848 to 0.000467849
Heightened Def Con from 0.00046816 to 0.000468165
Heightened Def Con from 0.000468167 to 0.000468167
Heightened Def Con from 0.000468177 to 0.000468184
Heightened Def Con from 0.000472897 to 0.000472899
Heightened Def Con from 0.0004729 to 0.0004729
Heightened Def Con from 0.000472976 to 0.000472981
Heightened Def Con from 0.000472983 to 0.000472983
Heightened Def Con from 0.000472993 to 0.000473
Heightened Def Con from 0.000477827 to 0.000477827
Heightened Def Con from 0.000477922 to 0.000477927
Heightened Def Con from 0.000477929 to 0.000477929
Heightened Def Con from 0.000477939 to 0.000477946
Heightened Def Con from 0.000482636 to 0.000482636
Heightened Def Con from 0.000482987 to 0.000482992
Heightened Def Con from 0.000482994 to 0.000482994
Heightened Def Con from 0.000483004 to 0.000483011
Heightened Def Con from 0.000487352 to 0.000487354
Heightened Def Con from 0.000487355 to 0.000487355
Heightened Def Con from 0.000488137 to 0.00048814
Heightened Def Con from 0.000488141 to 0.000488141
Heightened Def Con from 0.000488152 to 0.000488159
Heightened Def Con from 0.000491994 to 0.000491995
Heightened Def Con from 0.000491996 to 0.000491996
Heightened Def Con from 0.000493373 to 0.000493373
Heightened Def Con from 0.000493383 to 0.000493394
Heightened Def Con from 0.000496592 to 0.000496593
Heightened Def Con from 0.000496595 to 0.000496595
Heightened Def Con from 0.000498654 to 0.000498654
Heightened Def Con from 0.000501164 to 0.000501165
Heightened Def Con from 0.000501165 to 0.000501187
Heightened Def Con from 0.000503947 to 0.000503948
Heightened Def Con from 0.000505749 to 0.00050575
Heightened Def Con from 0.000509206 to 0.000509208
Heightened Def Con from 0.00050921 to 0.00050921
Heightened Def Con from 0.000510365 to 0.000510365
Heightened Def Con from 0.000510376 to 0.000510386
Heightened Def Con from 0.000514403 to 0.000514405
Heightened Def Con from 0.000514406 to 0.000514406
Heightened Def Con from 0.000515036 to 0.000515036
Heightened Def Con from 0.000515048 to 0.000515054
Heightened Def Con from 0.00051951 to 0.00051951
Heightened Def Con from 0.000519794 to 0.000519794
Heightened Def Con from 0.000519805 to 0.000519811
Heightened Def Con from 0.000524507 to 0.000524509
Heightened Def Con from 0.000524511 to 0.000524511
Heightened Def Con from 0.000524648 to 0.000524648
Heightened Def Con from 0.000524659 to 0.000524665
Heightened Def Con from 0.000529403 to 0.000529403
Heightened Def Con from 0.000529638 to 0.000529638
Heightened Def Con from 0.000529649 to 0.000529655
Heightened Def Con from 0.000534197 to 0.000534199
Heightened Def Con from 0.0005342 to 0.0005342
Heightened Def Con from 0.000534742 to 0.000534742
Heightened Def Con from 0.000534754 to 0.00053476
Heightened Def Con from 0.000538916 to 0.000538918
Heightened Def Con from 0.000538919 to 0.000538919
Heightened Def Con from 0.000539963 to 0.000539963
Heightened Def Con from 0.000539975 to 0.000539981
Heightened Def Con from 0.000543578 to 0.00054358
Heightened Def Con from 0.000543581 to 0.000543581
Heightened Def Con from 0.00054526 to 0.000545264
Heightened Def Con from 0.000545265 to 0.000545265
Heightened Def Con from 0.000545277 to 0.000545287
Heightened Def Con from 0.000548207 to 0.000548207
Heightened Def Con from 0.00055061 to 0.00055061
Heightened Def Con from 0.000550613 to 0.000550632
Heightened Def Con from 0.000552824 to 0.000552824
Heightened Def Con from 0.000552826 to 0.000552846
Heightened Def Con from 0.000555954 to 0.000555954
Heightened Def Con from 0.000557448 to 0.000557454
Heightened Def Con from 0.000557455 to 0.000557455
Heightened Def Con from 0.000557466 to 0.00055747
Heightened Def Con from 0.00056124 to 0.00056124
Heightened Def Con from 0.000562118 to 0.000562123
Heightened Def Con from 0.000562125 to 0.000562125
Heightened Def Con from 0.000562136 to 0.000562145
Heightened Def Con from 0.000566437 to 0.000566437
Heightened Def Con from 0.000566849 to 0.000566854
Heightened Def Con from 0.000566856 to 0.000566856
Heightened Def Con from 0.000566866 to 0.000566873
Heightened Def Con from 0.00057152 to 0.000571522
Heightened Def Con from 0.000571522 to 0.000571523
Heightened Def Con from 0.000571659 to 0.000571659
Heightened Def Con from 0.000571669 to 0.000571676
Heightened Def Con from 0.00057649 to 0.000576492
Heightened Def Con from 0.000576493 to 0.000576493
Heightened Def Con from 0.000576551 to 0.000576551
Heightened Def Con from 0.000576561 to 0.000576569
Heightened Def Con from 0.000581325 to 0.000581327
Heightened Def Con from 0.000581328 to 0.000581329
Heightened Def Con from 0.000581592 to 0.000581597
Heightened Def Con from 0.000581598 to 0.000581598
Heightened Def Con from 0.000581609 to 0.000581616
Heightened Def Con from 0.000586064 to 0.000586064
Heightened Def Con from 0.000586716 to 0.000586719
Heightened Def Con from 0.000586721 to 0.000586721
Heightened Def Con from 0.000586731 to 0.000586738
Heightened Def Con from 0.000590726 to 0.000590726
Heightened Def Con from 0.000591928 to 0.000591931
Heightened Def Con from 0.000591932 to 0.000591932
Heightened Def Con from 0.000591943 to 0.000591951
Heightened Def Con from 0.00059533 to 0.000595331
Heightened Def Con from 0.000595332 to 0.000595332
Heightened Def Con from 0.000597203 to 0.000597203
Heightened Def Con from 0.000599914 to 0.000599914
Heightened Def Con from 0.000602498 to 0.000602498
Heightened Def Con from 0.000602498 to 0.000602498
Heightened Def Con from 0.000604493 to 0.000604493
Heightened Def Con from 0.000607773 to 0.000607773
Heightened Def Con from 0.000609088 to 0.000609092
Heightened Def Con from 0.000609093 to 0.000609093
Heightened Def Con from 0.000609105 to 0.000609107
Heightened Def Con from 0.000612991 to 0.000612991
Heightened Def Con from 0.000613748 to 0.000613748
Heightened Def Con from 0.00061376 to 0.000613766
Heightened Def Con from 0.000618118 to 0.00061812
Heightened Def Con from 0.000618121 to 0.000618122
Heightened Def Con from 0.00061848 to 0.00061848
Heightened Def Con from 0.000618492 to 0.000618498
Heightened Def Con from 0.00062315 to 0.00062315
Heightened Def Con from 0.000623303 to 0.000623303
Heightened Def Con from 0.000623315 to 0.000623321
Heightened Def Con from 0.000628068 to 0.00062807
Heightened Def Con from 0.000628071 to 0.000628071
Heightened Def Con from 0.000628256 to 0.000628256
Heightened Def Con from 0.000628267 to 0.000628273
Heightened Def Con from 0.000632891 to 0.000632893
Heightened Def Con from 0.000632894 to 0.000632894
Heightened Def Con from 0.00063333 to 0.00063333
Heightened Def Con from 0.000633342 to 0.000633348
Heightened Def Con from 0.000637633 to 0.000637633
Heightened Def Con from 0.000638521 to 0.000638522
Heightened Def Con from 0.000638533 to 0.000638539
Heightened Def Con from 0.000642304 to 0.000642306
Heightened Def Con from 0.000642308 to 0.000642308
Heightened Def Con from 0.000643803 to 0.000643807
Heightened Def Con from 0.000643808 to 0.000643808
Heightened Def Con from 0.000643819 to 0.000643829
Heightened Def Con from 0.000646939 to 0.000646941
Heightened Def Con from 0.000646942 to 0.000646942
Heightened Def Con from 0.000649143 to 0.000649143
Heightened Def Con from 0.000651558 to 0.000651558
Heightened Def Con from 0.000654494 to 0.000654494
Heightened Def Con from 0.000654495 to 0.000654495
Heightened Def Con from 0.000656183 to 0.000656183
Heightened Def Con from 0.000659799 to 0.0006598
Heightened Def Con from 0.000660832 to 0.000660839
Heightened Def Con from 0.000660839 to 0.000660839
Heightened Def Con from 0.00066085 to 0.000660861
Heightened Def Con from 0.000665024 to 0.000665026
Heightened Def Con from 0.000665026 to 0.000665027
Heightened Def Con from 0.000665547 to 0.00066555
Heightened Def Con from 0.000665551 to 0.000665552
Heightened Def Con from 0.000665562 to 0.000665569
Heightened Def Con from 0.000670143 to 0.000670143
Heightened Def Con from 0.00067033 to 0.000670331
Heightened Def Con from 0.000670332 to 0.000670335
Heightened Def Con from 0.000670337 to 0.000670337
Heightened Def Con from 0.000670348 to 0.000670355
Heightened Def Con from 0.000675145 to 0.000675147
Heightened Def Con from 0.000675148 to 0.000675148
Heightened Def Con from 0.000675186 to 0.000675187
Heightened Def Con from 0.000675196 to 0.000675205
Heightened Def Con from 0.000680008 to 0.00068001
Heightened Def Con from 0.000680011 to 0.000680012
Heightened Def Con from 0.000680204 to 0.000680209
Heightened Def Con from 0.00068021 to 0.000680211
Heightened Def Con from 0.000680221 to 0.000680228
Heightened Def Con from 0.000684774 to 0.000684775
Heightened Def Con from 0.000685301 to 0.000685306
Heightened Def Con from 0.000685308 to 0.000685308
Heightened Def Con from 0.000685319 to 0.000685326
Heightened Def Con from 0.000689457 to 0.000689457
Heightened Def Con from 0.000690492 to 0.000690495
Heightened Def Con from 0.000690497 to 0.000690497
Heightened Def Con from 0.000690507 to 0.000690516
Heightened Def Con from 0.000694073 to 0.000694073
Heightened Def Con from 0.000695748 to 0.000695754
Heightened Def Con from 0.000695755 to 0.000695755
Heightened Def Con from 0.000695765 to 0.00069577
Heightened Def Con from 0.000698657 to 0.000698658
Heightened Def Con from 0.000701047 to 0.000701047
Heightened Def Con from 0.000703233 to 0.000703234
Heightened Def Con from 0.000706328 to 0.00070633
Heightened Def Con from 0.000706332 to 0.000706332
Heightened Def Con from 0.000707823 to 0.000707826
Heightened Def Con from 0.000707827 to 0.000707827
Heightened Def Con from 0.000707838 to 0.000707848
Heightened Def Con from 0.000711568 to 0.000711568
Heightened Def Con from 0.000712465 to 0.000712465
Heightened Def Con from 0.000712476 to 0.000712482
Heightened Def Con from 0.000716725 to 0.000716725
Heightened Def Con from 0.000717173 to 0.000717173
Heightened Def Con from 0.000717184 to 0.00071719
Heightened Def Con from 0.000721778 to 0.000721781
Heightened Def Con from 0.000721782 to 0.000721782
Heightened Def Con from 0.000721974 to 0.000721974
Heightened Def Con from 0.000721985 to 0.000721991
Heightened Def Con from 0.000726733 to 0.000726733
Heightened Def Con from 0.000726883 to 0.000726883
Heightened Def Con from 0.000726894 to 0.0007269
Heightened Def Con from 0.000731555 to 0.000731557
Heightened Def Con from 0.000731578 to 0.00073158
Heightened Def Con from 0.000731581 to 0.000731581
Heightened Def Con from 0.000731927 to 0.000731927
Heightened Def Con from 0.000731939 to 0.000731945
Heightened Def Con from 0.000736342 to 0.000736342
Heightened Def Con from 0.000737091 to 0.000737091
Heightened Def Con from 0.000737102 to 0.000737108
Heightened Def Con from 0.000741028 to 0.00074103
Heightened Def Con from 0.000741031 to 0.000741032
Heightened Def Con from 0.00074235 to 0.00074235
Heightened Def Con from 0.000742361 to 0.000742371
Heightened Def Con from 0.000745671 to 0.000745673
Heightened Def Con from 0.000745674 to 0.000745674
Heightened Def Con from 0.000747679 to 0.000747679
Heightened Def Con from 0.000750292 to 0.000750293
Heightened Def Con from 0.000750294 to 0.000750294
Heightened Def Con from 0.000753027 to 0.000753027
Heightened Def Con from 0.000753027 to 0.000753028
Heightened Def Con from 0.000754914 to 0.000754914
Heightened Def Con from 0.000758352 to 0.000758352
Heightened Def Con from 0.000759556 to 0.000759559
Heightened Def Con from 0.00075956 to 0.00075956
Heightened Def Con from 0.000759571 to 0.000759582
Heightened Def Con from 0.000763605 to 0.000763605
Heightened Def Con from 0.000764255 to 0.000764255
Heightened Def Con from 0.000764266 to 0.000764273
Heightened Def Con from 0.000768751 to 0.000768753
Heightened Def Con from 0.000768754 to 0.000768754
Heightened Def Con from 0.000769013 to 0.000769018
Heightened Def Con from 0.00076902 to 0.00076902
Heightened Def Con from 0.00076903 to 0.000769037
Heightened Def Con from 0.000773787 to 0.000773787
Heightened Def Con from 0.000773847 to 0.000773847
Heightened Def Con from 0.000773858 to 0.000773866
Heightened Def Con from 0.000778683 to 0.000778683
Heightened Def Con from 0.00077882 to 0.000778825
Heightened Def Con from 0.000778826 to 0.000778827
Heightened Def Con from 0.000778837 to 0.000778844
Heightened Def Con from 0.000783476 to 0.000783478
Heightened Def Con from 0.000783479 to 0.000783479
Heightened Def Con from 0.000783902 to 0.000783902
Heightened Def Con from 0.000783913 to 0.00078392
Heightened Def Con from 0.000788177 to 0.000788177
Heightened Def Con from 0.00078906 to 0.000789066
Heightened Def Con from 0.000789066 to 0.000789066
Heightened Def Con from 0.000789077 to 0.000789084
Heightened Def Con from 0.000792812 to 0.000792812
Heightened Def Con from 0.000794305 to 0.000794308
Heightened Def Con from 0.000794309 to 0.000794309
Heightened Def Con from 0.00079432 to 0.000794331
Heightened Def Con from 0.000797403 to 0.000797404
Heightened Def Con from 0.000797405 to 0.000797405
Heightened Def Con from 0.000799595 to 0.000799596
Heightened Def Con from 0.000801976 to 0.000801976
Heightened Def Con from 0.000804886 to 0.000804887
Heightened Def Con from 0.00080656 to 0.00080656
Heightened Def Con from 0.000810138 to 0.00081014
Heightened Def Con from 0.000810141 to 0.000810141
Heightened Def Con from 0.000811184 to 0.000811184
Heightened Def Con from 0.000811196 to 0.000811204
Heightened Def Con from 0.000815321 to 0.000815322
Heightened Def Con from 0.000815874 to 0.000815874
Heightened Def Con from 0.000815886 to 0.000815892
Heightened Def Con from 0.000820407 to 0.000820407
Heightened Def Con from 0.000820643 to 0.000820643
Heightened Def Con from 0.000820654 to 0.00082066
Heightened Def Con from 0.000825386 to 0.000825388
Heightened Def Con from 0.000825389 to 0.000825389
Heightened Def Con from 0.00082552 to 0.00082552
Heightened Def Con from 0.000825531 to 0.000825537
Heightened Def Con from 0.000830258 to 0.00083026
Heightened Def Con from 0.000830262 to 0.000830262
Heightened Def Con from 0.000830533 to 0.000830533
Heightened Def Con from 0.000830545 to 0.000830551
Heightened Def Con from 0.000835045 to 0.000835045
Heightened Def Con from 0.000835659 to 0.000835659
Heightened Def Con from 0.00083567 to 0.000835676
Heightened Def Con from 0.000839748 to 0.00083975
Heightened Def Con from 0.000839752 to 0.000839752
Heightened Def Con from 0.000840899 to 0.000840899
Heightened Def Con from 0.00084091 to 0.00084092
Heightened Def Con from 0.000844406 to 0.000844406
Heightened Def Con from 0.000846209 to 0.000846209
Heightened Def Con from 0.000849029 to 0.000849029
Heightened Def Con from 0.000851557 to 0.000851557
Heightened Def Con from 0.000853646 to 0.000853647
Heightened Def Con from 0.000856897 to 0.000856898
Heightened Def Con from 0.0008569 to 0.0008569
Heightened Def Con from 0.000858275 to 0.000858281
Heightened Def Con from 0.000858282 to 0.000858282
Heightened Def Con from 0.000858292 to 0.000858304
Heightened Def Con from 0.000862172 to 0.000862172
Heightened Def Con from 0.000862955 to 0.00086296
Heightened Def Con from 0.000862962 to 0.000862962
Heightened Def Con from 0.000862972 to 0.000862979
Heightened Def Con from 0.000867347 to 0.000867349
Heightened Def Con from 0.00086735 to 0.00086735
Heightened Def Con from 0.0008677 to 0.000867705
Heightened Def Con from 0.000867706 to 0.000867706
Heightened Def Con from 0.000867717 to 0.000867724
Heightened Def Con from 0.000872406 to 0.000872408
Heightened Def Con from 0.000872409 to 0.000872409
Heightened Def Con from 0.000872512 to 0.000872517
Heightened Def Con from 0.000872519 to 0.000872519
Heightened Def Con from 0.000877354 to 0.000877354
Heightened Def Con from 0.000877446 to 0.000877446
Heightened Def Con from 0.000877456 to 0.000877463
Heightened Def Con from 0.000882167 to 0.000882169
Heightened Def Con from 0.000882171 to 0.000882171
Heightened Def Con from 0.000882496 to 0.000882502
Heightened Def Con from 0.000882503 to 0.000882503
Heightened Def Con from 0.000882514 to 0.000882521
Heightened Def Con from 0.000886895 to 0.000886897
Heightened Def Con from 0.000886898 to 0.000886898
Heightened Def Con from 0.000887642 to 0.000887642
Heightened Def Con from 0.000887652 to 0.000887659
Heightened Def Con from 0.000891551 to 0.000891551
Heightened Def Con from 0.000892866 to 0.000892867
Heightened Def Con from 0.000892877 to 0.000892888
Heightened Def Con from 0.000896146 to 0.000896147
Heightened Def Con from 0.000896148 to 0.000896148
Heightened Def Con from 0.000898144 to 0.000898144
Heightened Def Con from 0.000900724 to 0.000900724
Heightened Def Con from 0.000903438 to 0.000903438
Heightened Def Con from 0.000905299 to 0.000905299
Heightened Def Con from 0.000908706 to 0.000908706
Heightened Def Con from 0.000909913 to 0.000909913
Heightened Def Con from 0.000909925 to 0.000909935
Heightened Def Con from 0.000913909 to 0.000913909
Heightened Def Con from 0.000914577 to 0.000914577
Heightened Def Con from 0.000914588 to 0.000914594
Heightened Def Con from 0.000919327 to 0.000919327
Heightened Def Con from 0.000919339 to 0.000919345
Heightened Def Con from 0.000924034 to 0.000924034
Heightened Def Con from 0.000924168 to 0.000924169
Heightened Def Con from 0.00092418 to 0.000924186
Heightened Def Con from 0.000928935 to 0.000928935
Heightened Def Con from 0.000929144 to 0.000929145
Heightened Def Con from 0.000929156 to 0.000929162
Heightened Def Con from 0.000933738 to 0.00093374
Heightened Def Con from 0.000933742 to 0.000933742
Heightened Def Con from 0.000934245 to 0.000934245
Heightened Def Con from 0.000934257 to 0.000934263
Heightened Def Con from 0.000938467 to 0.000938467
Heightened Def Con from 0.00093945 to 0.00093945
Heightened Def Con from 0.000939462 to 0.000939468
Heightened Def Con from 0.000943134 to 0.000943134
Heightened Def Con from 0.000944743 to 0.000944747
Heightened Def Con from 0.000944749 to 0.000944749
Heightened Def Con from 0.00094476 to 0.000944762
Heightened Def Con from 0.000947763 to 0.000947763
Heightened Def Con from 0.000950094 to 0.000950095
Heightened Def Con from 0.000952379 to 0.00095238
Heightened Def Con from 0.000955435 to 0.000955435
Heightened Def Con from 0.000957008 to 0.000957008
Heightened Def Con from 0.000957018 to 0.00095703
Heightened Def Con from 0.000960735 to 0.000960735
Heightened Def Con from 0.000961673 to 0.000961673
Heightened Def Con from 0.000961683 to 0.000961692
Heightened Def Con from 0.000965937 to 0.000965937
Heightened Def Con from 0.000966397 to 0.000966397
Heightened Def Con from 0.000966407 to 0.000966414
Heightened Def Con from 0.000971033 to 0.000971033
Heightened Def Con from 0.000971188 to 0.000971193
Heightened Def Con from 0.000971195 to 0.000971195
Heightened Def Con from 0.000976015 to 0.000976015
Heightened Def Con from 0.000976073 to 0.000976073
Heightened Def Con from 0.000976083 to 0.000976091
Heightened Def Con from 0.000980863 to 0.000980863
Heightened Def Con from 0.000981103 to 0.000981104
Heightened Def Con from 0.00098111 to 0.00098111
Heightened Def Con from 0.00098112 to 0.000981127
Heightened Def Con from 0.00098561 to 0.00098561
Heightened Def Con from 0.000986216 to 0.000986221
Heightened Def Con from 0.000986223 to 0.000986223
Heightened Def Con from 0.000986234 to 0.000986241
Heightened Def Con from 0.000990279 to 0.000990279
Heightened Def Con from 0.00099142 to 0.000991426
Heightened Def Con from 0.000991426 to 0.000991427
Heightened Def Con from 0.000991437 to 0.000991444
Heightened Def Con from 0.000994887 to 0.000994889
Heightened Def Con from 0.00099489 to 0.00099489
Heightened Def Con from 0.00099669 to 0.000996692
Heightened Def Con from 0.000996694 to 0.000996694
Heightened Def Con from 0.000999466 to 0.000999466
Heightened Def Con from 0.00100199 to 0.00100199
Heightened Def Con from 0.00100404 to 0.00100404
Heightened Def Con from 0.00100727 to 0.00100727
Heightened Def Con from 0.00100864 to 0.00100864
Heightened Def Con from 0.00100864 to 0.00100864
Heightened Def Con from 0.00100865 to 0.00100866
Heightened Def Con from 0.00101249 to 0.00101249
Heightened Def Con from 0.00101249 to 0.00101249
Heightened Def Con from 0.00101329 to 0.00101329
Heightened Def Con from 0.0010133 to 0.00101331
Heightened Def Con from 0.00101763 to 0.00101763
Heightened Def Con from 0.00101802 to 0.00101802
Heightened Def Con from 0.00101803 to 0.00101803
Heightened Def Con from 0.00102267 to 0.00102267
Heightened Def Con from 0.00102283 to 0.00102283
Heightened Def Con from 0.00102284 to 0.00102285
Heightened Def Con from 0.0010276 to 0.0010276
Heightened Def Con from 0.00102777 to 0.00102777
Heightened Def Con from 0.00102778 to 0.00102779
Heightened Def Con from 0.00103243 to 0.00103243
Heightened Def Con from 0.00103243 to 0.00103243
Heightened Def Con from 0.00103283 to 0.00103283
Heightened Def Con from 0.00103284 to 0.00103285
Heightened Def Con from 0.00103717 to 0.00103718
Heightened Def Con from 0.00103718 to 0.00103718
Heightened Def Con from 0.00103801 to 0.00103801
Heightened Def Con from 0.00103802 to 0.00103803
Heightened Def Con from 0.00104186 to 0.00104186
Heightened Def Con from 0.00104186 to 0.00104186
Heightened Def Con from 0.00104328 to 0.00104328
Heightened Def Con from 0.00104328 to 0.00104328
Heightened Def Con from 0.0010433 to 0.00104331
Heightened Def Con from 0.0010465 to 0.0010465
Heightened Def Con from 0.00104862 to 0.00104862
Heightened Def Con from 0.00105111 to 0.00105111
Heightened Def Con from 0.00105111 to 0.00105111
Heightened Def Con from 0.00105397 to 0.00105397
Heightened Def Con from 0.00105397 to 0.00105397
Heightened Def Con from 0.00105574 to 0.00105574
Heightened Def Con from 0.00105929 to 0.00105929
Heightened Def Con from 0.00106039 to 0.00106039
Heightened Def Con from 0.0010604 to 0.00106041
Heightened Def Con from 0.00106452 to 0.00106452
Heightened Def Con from 0.00106453 to 0.00106453
Heightened Def Con from 0.00106509 to 0.00106509
Heightened Def Con from 0.00106511 to 0.00106511
Heightened Def Con from 0.00106965 to 0.00106965
Heightened Def Con from 0.00106987 to 0.00106987
Heightened Def Con from 0.00106987 to 0.00106987
Heightened Def Con from 0.00106987 to 0.00106987
Heightened Def Con from 0.00106988 to 0.00106989
Heightened Def Con from 0.00107466 to 0.00107466
Heightened Def Con from 0.00107472 to 0.00107472
Heightened Def Con from 0.00107473 to 0.00107473
Heightened Def Con from 0.00107954 to 0.00107954
Heightened Def Con from 0.00107972 to 0.00107972
Heightened Def Con from 0.00107972 to 0.00107972
Heightened Def Con from 0.00107972 to 0.00107972
Heightened Def Con from 0.00107973 to 0.00107974
Heightened Def Con from 0.00108431 to 0.00108431
Heightened Def Con from 0.00108431 to 0.00108431
Heightened Def Con from 0.00108481 to 0.00108481
Heightened Def Con from 0.00108482 to 0.00108483
Heightened Def Con from 0.001089 to 0.001089
Heightened Def Con from 0.00108999 to 0.00108999
Heightened Def Con from 0.00108999 to 0.00108999
Heightened Def Con from 0.00109 to 0.00109001
Heightened Def Con from 0.00109362 to 0.00109362
Heightened Def Con from 0.00109524 to 0.00109524
Heightened Def Con from 0.00109524 to 0.00109524
Heightened Def Con from 0.00109526 to 0.00109526
Heightened Def Con from 0.00109821 to 0.00109821
Heightened Def Con from 0.00109821 to 0.00109821
Heightened Def Con from 0.00110054 to 0.00110054
Heightened Def Con from 0.00110278 to 0.00110278
Heightened Def Con from 0.00110582 to 0.00110582
Heightened Def Con from 0.00110582 to 0.00110582
Heightened Def Con from 0.00110737 to 0.00110737
Heightened Def Con from 0.00110737 to 0.00110737
Heightened Def Con from 0.00111107 to 0.00111107
Heightened Def Con from 0.00111201 to 0.00111201
Heightened Def Con from 0.00111202 to 0.00111203
Heightened Def Con from 0.00111623 to 0.00111623
Heightened Def Con from 0.00111671 to 0.00111671
Heightened Def Con from 0.00111672 to 0.00111673
Heightened Def Con from 0.0011213 to 0.0011213
Heightened Def Con from 0.0011215 to 0.0011215
Heightened Def Con from 0.00112151 to 0.00112152
Heightened Def Con from 0.00112626 to 0.00112626
Heightened Def Con from 0.0011264 to 0.0011264
Heightened Def Con from 0.00112641 to 0.00112641
Heightened Def Con from 0.00113112 to 0.00113112
Heightened Def Con from 0.00113143 to 0.00113143
Heightened Def Con from 0.00113144 to 0.00113145
Heightened Def Con from 0.00113588 to 0.00113588
Heightened Def Con from 0.00113658 to 0.00113658
Heightened Def Con from 0.00113659 to 0.0011366
Heightened Def Con from 0.00114058 to 0.00114058
Heightened Def Con from 0.00114058 to 0.00114058
Heightened Def Con from 0.00114183 to 0.00114183
Heightened Def Con from 0.00114184 to 0.00114185
Heightened Def Con from 0.00114523 to 0.00114523
Heightened Def Con from 0.00114716 to 0.00114716
Heightened Def Con from 0.00114985 to 0.00114985
Heightened Def Con from 0.00114985 to 0.00114985
Heightened Def Con from 0.00115251 to 0.00115251
Heightened Def Con from 0.00115251 to 0.00115253
Heightened Def Con from 0.00115447 to 0.00115447
Heightened Def Con from 0.00115784 to 0.00115784
Heightened Def Con from 0.0011591 to 0.00115911
Heightened Def Con from 0.00115911 to 0.00115911
Heightened Def Con from 0.00115912 to 0.00115913
Heightened Def Con from 0.00116309 to 0.00116309
Heightened Def Con from 0.00116379 to 0.0011638
Heightened Def Con from 0.0011638 to 0.0011638
Heightened Def Con from 0.00116381 to 0.00116382
Heightened Def Con from 0.00116825 to 0.00116825
Heightened Def Con from 0.00116826 to 0.00116826
Heightened Def Con from 0.00116855 to 0.00116856
Heightened Def Con from 0.00116856 to 0.00116856
Heightened Def Con from 0.00116857 to 0.00116857
Heightened Def Con from 0.0011733 to 0.0011733
Heightened Def Con from 0.00117337 to 0.00117338
Heightened Def Con from 0.00117338 to 0.00117338
Heightened Def Con from 0.00117339 to 0.0011734
Heightened Def Con from 0.00117821 to 0.00117821
Heightened Def Con from 0.00117833 to 0.00117834
Heightened Def Con from 0.00117834 to 0.00117834
Heightened Def Con from 0.00117835 to 0.00117836
Heightened Def Con from 0.00118302 to 0.00118302
Heightened Def Con from 0.0011834 to 0.00118341
Heightened Def Con from 0.00118341 to 0.00118341
Heightened Def Con from 0.00118342 to 0.00118343
Heightened Def Con from 0.00118772 to 0.00118772
Heightened Def Con from 0.00118856 to 0.00118856
Heightened Def Con from 0.00118856 to 0.00118856
Heightened Def Con from 0.00118857 to 0.00118858
Heightened Def Con from 0.00119236 to 0.00119236
Heightened Def Con from 0.00119236 to 0.00119236
Heightened Def Con from 0.00119379 to 0.0011938
Heightened Def Con from 0.0011938 to 0.0011938
Heightened Def Con from 0.00119381 to 0.00119382
Heightened Def Con from 0.00119695 to 0.00119695
Heightened Def Con from 0.00119696 to 0.00119696
Heightened Def Con from 0.00119908 to 0.00119908
Heightened Def Con from 0.00120153 to 0.00120153
Heightened Def Con from 0.00120153 to 0.00120155
Heightened Def Con from 0.00120437 to 0.00120437
Heightened Def Con from 0.00120438 to 0.00120438
Heightened Def Con from 0.00120611 to 0.00120611
Heightened Def Con from 0.00120611 to 0.00120611
Heightened Def Con from 0.00120964 to 0.00120964
Heightened Def Con from 0.00121073 to 0.00121073
Heightened Def Con from 0.00121074 to 0.00121075
Heightened Def Con from 0.00121482 to 0.00121482
Heightened Def Con from 0.00121482 to 0.00121482
Heightened Def Con from 0.00121541 to 0.00121541
Heightened Def Con from 0.00121543 to 0.00121543
Heightened Def Con from 0.00121992 to 0.00121992
Heightened Def Con from 0.00121992 to 0.00121992
Heightened Def Con from 0.00122018 to 0.00122018
Heightened Def Con from 0.00122019 to 0.00122019
Heightened Def Con from 0.00122489 to 0.00122491
Heightened Def Con from 0.00122491 to 0.00122491
Heightened Def Con from 0.00122491 to 0.00122491
Heightened Def Con from 0.00122504 to 0.00122504
Heightened Def Con from 0.00122505 to 0.00122505
Heightened Def Con from 0.00122979 to 0.00122979
Heightened Def Con from 0.00122979 to 0.00122979
Heightened Def Con from 0.00123004 to 0.00123004
Heightened Def Con from 0.00123005 to 0.00123006
Heightened Def Con from 0.00123459 to 0.00123459
Heightened Def Con from 0.00123516 to 0.00123516
Heightened Def Con from 0.00123517 to 0.00123518
Heightened Def Con from 0.0012393 to 0.0012393
Heightened Def Con from 0.0012393 to 0.0012393
Heightened Def Con from 0.00124038 to 0.00124038
Heightened Def Con from 0.0012404 to 0.0012404
Heightened Def Con from 0.00124396 to 0.00124396
Heightened Def Con from 0.00124568 to 0.00124569
Heightened Def Con from 0.00124569 to 0.00124569
Heightened Def Con from 0.00124569 to 0.00124569
Heightened Def Con from 0.00124858 to 0.00124858
Heightened Def Con from 0.00124858 to 0.00124858
Heightened Def Con from 0.00125104 to 0.00125104
Heightened Def Con from 0.0012532 to 0.0012532
Heightened Def Con from 0.0012532 to 0.00125322
Heightened Def Con from 0.00125638 to 0.00125638
Heightened Def Con from 0.00125782 to 0.00125783
Heightened Def Con from 0.00125783 to 0.00125783
Heightened Def Con from 0.00125784 to 0.00125785
Heightened Def Con from 0.00126166 to 0.00126166
Heightened Def Con from 0.0012625 to 0.0012625
Heightened Def Con from 0.00126251 to 0.00126251
Heightened Def Con from 0.00126252 to 0.00126253
Heightened Def Con from 0.00126685 to 0.00126685
Heightened Def Con from 0.00126685 to 0.00126685
Heightened Def Con from 0.00126724 to 0.00126724
Heightened Def Con from 0.00126725 to 0.00126726
Heightened Def Con from 0.00127192 to 0.00127192
Heightened Def Con from 0.00127205 to 0.00127205
Heightened Def Con from 0.00127206 to 0.00127207
Heightened Def Con from 0.00127688 to 0.00127688
Heightened Def Con from 0.00127696 to 0.00127696
Heightened Def Con from 0.00127696 to 0.00127696
Heightened Def Con from 0.00128171 to 0.00128171
Heightened Def Con from 0.00128171 to 0.00128171
Heightened Def Con from 0.00128201 to 0.00128201
Heightened Def Con from 0.00128202 to 0.00128203
Heightened Def Con from 0.00128644 to 0.00128644
Heightened Def Con from 0.00128714 to 0.00128714
Heightened Def Con from 0.00128715 to 0.00128716
Heightened Def Con from 0.00129109 to 0.00129109
Heightened Def Con from 0.00129109 to 0.0012911
Heightened Def Con from 0.00129235 to 0.00129236
Heightened Def Con from 0.00129236 to 0.00129236
Heightened Def Con from 0.00129237 to 0.00129238
Heightened Def Con from 0.00129569 to 0.00129569
Heightened Def Con from 0.0012957 to 0.0012957
Heightened Def Con from 0.00129763 to 0.00129763
Heightened Def Con from 0.00130027 to 0.00130027
Heightened Def Con from 0.00130293 to 0.00130293
Heightened Def Con from 0.00130293 to 0.00130293
Heightened Def Con from 0.00130293 to 0.00130293
Heightened Def Con from 0.00130486 to 0.00130486
Heightened Def Con from 0.0013082 to 0.0013082
Heightened Def Con from 0.00130946 to 0.00130946
Heightened Def Con from 0.00130947 to 0.00130948
Heightened Def Con from 0.00131341 to 0.00131341
Heightened Def Con from 0.00131412 to 0.00131412
Heightened Def Con from 0.00131413 to 0.00131414
Heightened Def Con from 0.00131853 to 0.00131853
Heightened Def Con from 0.00131886 to 0.00131886
Heightened Def Con from 0.00131887 to 0.00131888
Heightened Def Con from 0.00132355 to 0.00132355
Heightened Def Con from 0.00132355 to 0.00132355
Heightened Def Con from 0.00132369 to 0.00132369
Heightened Def Con from 0.0013237 to 0.00132371
Heightened Def Con from 0.00132846 to 0.00132847
Heightened Def Con from 0.00132866 to 0.00132866
Heightened Def Con from 0.00132867 to 0.00132867
Heightened Def Con from 0.00133328 to 0.00133328
Heightened Def Con from 0.00133328 to 0.00133328
Heightened Def Con from 0.00133374 to 0.00133374
Heightened Def Con from 0.00133376 to 0.00133376
Heightened Def Con from 0.00133801 to 0.00133801
Heightened Def Con from 0.00133801 to 0.00133801
Heightened Def Con from 0.00133894 to 0.00133894
Heightened Def Con from 0.00133895 to 0.00133896
Heightened Def Con from 0.00134268 to 0.00134268
Heightened Def Con from 0.00134423 to 0.00134423
Heightened Def Con from 0.00134423 to 0.00134423
Heightened Def Con from 0.00134424 to 0.00134425
Heightened Def Con from 0.00134732 to 0.00134732
Heightened Def Con from 0.00134957 to 0.00134957
Heightened Def Con from 0.00135193 to 0.00135193
Heightened Def Con from 0.00135193 to 0.00135195
Heightened Def Con from 0.00135491 to 0.00135491
Heightened Def Con from 0.00135655 to 0.00135656
Heightened Def Con from 0.00135656 to 0.00135656
Heightened Def Con from 0.00136022 to 0.00136022
Heightened Def Con from 0.00136022 to 0.00136022
Heightened Def Con from 0.00136121 to 0.00136122
Heightened Def Con from 0.00136122 to 0.00136122
Heightened Def Con from 0.00136123 to 0.00136124
Heightened Def Con from 0.00136543 to 0.00136544
Heightened Def Con from 0.00136544 to 0.00136544
Heightened Def Con from 0.00136593 to 0.00136594
Heightened Def Con from 0.00136594 to 0.00136594
Heightened Def Con from 0.00136595 to 0.00136595
Heightened Def Con from 0.00137055 to 0.00137055
Heightened Def Con from 0.00137072 to 0.00137072
Heightened Def Con from 0.00137072 to 0.00137073
Heightened Def Con from 0.00137073 to 0.00137073
Heightened Def Con from 0.00137074 to 0.00137075
Heightened Def Con from 0.00137554 to 0.00137554
Heightened Def Con from 0.00137559 to 0.00137559
Heightened Def Con from 0.00138039 to 0.00138039
Heightened Def Con from 0.00138039 to 0.00138039
Heightened Def Con from 0.00138061 to 0.00138062
Heightened Def Con from 0.00138062 to 0.00138062
Heightened Def Con from 0.00138063 to 0.00138064
Heightened Def Con from 0.00138515 to 0.00138515
Heightened Def Con from 0.00138572 to 0.00138572
Heightened Def Con from 0.00138572 to 0.00138572
Heightened Def Con from 0.00138573 to 0.00138574
Heightened Def Con from 0.00138983 to 0.00138983
Heightened Def Con from 0.00139091 to 0.00139092
Heightened Def Con from 0.00139092 to 0.00139092
Heightened Def Con from 0.00139093 to 0.00139094
Heightened Def Con from 0.00139444 to 0.00139444
Heightened Def Con from 0.00139444 to 0.00139444
Heightened Def Con from 0.00139618 to 0.00139618
Heightened Def Con from 0.00139902 to 0.00139902
Heightened Def Con from 0.00140147 to 0.00140147
Heightened Def Con from 0.00140148 to 0.0014015
Heightened Def Con from 0.00140359 to 0.00140359
Heightened Def Con from 0.00140676 to 0.00140676
Heightened Def Con from 0.00140819 to 0.00140819
Heightened Def Con from 0.00140819 to 0.00140819
Heightened Def Con from 0.0014082 to 0.00140821
Heightened Def Con from 0.00141199 to 0.00141199
Heightened Def Con from 0.00141283 to 0.00141283
Heightened Def Con from 0.00141284 to 0.00141285
Heightened Def Con from 0.00141713 to 0.00141714
Heightened Def Con from 0.00141714 to 0.00141714
Heightened Def Con from 0.00141755 to 0.00141755
Heightened Def Con from 0.00141756 to 0.00141757
Heightened Def Con from 0.00142218 to 0.00142218
Heightened Def Con from 0.00142218 to 0.00142218
Heightened Def Con from 0.00142235 to 0.00142235
Heightened Def Con from 0.00142236 to 0.00142237
Heightened Def Con from 0.00142712 to 0.00142713
Heightened Def Con from 0.00142713 to 0.00142713
Heightened Def Con from 0.00142728 to 0.00142728
Heightened Def Con from 0.00142729 to 0.0014273
Heightened Def Con from 0.00143196 to 0.00143197
Heightened Def Con from 0.00143197 to 0.00143197
Heightened Def Con from 0.00143233 to 0.00143233
Heightened Def Con from 0.00143234 to 0.00143235
Heightened Def Con from 0.00143672 to 0.00143672
Heightened Def Con from 0.0014375 to 0.0014375
Heightened Def Con from 0.00143751 to 0.00143752
Heightened Def Con from 0.0014414 to 0.0014414
Heightened Def Con from 0.00144141 to 0.00144141
Heightened Def Con from 0.00144277 to 0.00144277
Heightened Def Con from 0.00144278 to 0.00144279
Heightened Def Con from 0.00144605 to 0.00144605
Heightened Def Con from 0.0014481 to 0.0014481
Heightened Def Con from 0.00145066 to 0.00145066
Heightened Def Con from 0.00145066 to 0.00145066
Heightened Def Con from 0.00145345 to 0.00145345
Heightened Def Con from 0.00145345 to 0.00145345
Heightened Def Con from 0.00145529 to 0.00145529
Heightened Def Con from 0.00145877 to 0.00145877
Heightened Def Con from 0.00145993 to 0.00145994
Heightened Def Con from 0.00145995 to 0.00145995
Heightened Def Con from 0.00146402 to 0.00146402
Heightened Def Con from 0.00146463 to 0.00146463
Heightened Def Con from 0.00146463 to 0.00146464
Heightened Def Con from 0.00146465 to 0.00146465
Heightened Def Con from 0.00146916 to 0.00146916
Heightened Def Con from 0.0014694 to 0.00146941
Heightened Def Con from 0.00146941 to 0.00146941
Heightened Def Con from 0.00146942 to 0.00146942
Heightened Def Con from 0.00147417 to 0.00147417
Heightened Def Con from 0.00147424 to 0.00147424
Heightened Def Con from 0.00147424 to 0.00147424
Heightened Def Con from 0.00147425 to 0.00147426
Heightened Def Con from 0.00147907 to 0.00147907
Heightened Def Con from 0.00147923 to 0.00147923
Heightened Def Con from 0.00147923 to 0.00147923
Heightened Def Con from 0.00147924 to 0.00147925
Heightened Def Con from 0.00148385 to 0.00148385
Heightened Def Con from 0.00148431 to 0.00148431
Heightened Def Con from 0.00148432 to 0.00148433
Heightened Def Con from 0.00148855 to 0.00148855
Heightened Def Con from 0.00148948 to 0.00148948
Heightened Def Con from 0.00148949 to 0.00148949
Heightened Def Con from 0.0014895 to 0.0014895
Heightened Def Con from 0.00149318 to 0.00149318
Heightened Def Con from 0.00149473 to 0.00149473
Heightened Def Con from 0.00149473 to 0.00149473
Heightened Def Con from 0.00149474 to 0.00149475
Heightened Def Con from 0.00149777 to 0.00149777
Heightened Def Con from 0.00150002 to 0.00150002
Heightened Def Con from 0.00150002 to 0.00150004
Heightened Def Con from 0.00150234 to 0.00150234
Heightened Def Con from 0.00150531 to 0.00150531
Heightened Def Con from 0.00150692 to 0.00150693
Heightened Def Con from 0.00150693 to 0.00150693
Heightened Def Con from 0.00151056 to 0.00151056
Heightened Def Con from 0.00151156 to 0.00151156
Heightened Def Con from 0.00151157 to 0.00151158
Heightened Def Con from 0.00151573 to 0.00151573
Heightened Def Con from 0.00151573 to 0.00151573
Heightened Def Con from 0.00151625 to 0.00151625
Heightened Def Con from 0.00151626 to 0.00151627
Heightened Def Con from 0.00152081 to 0.00152081
Heightened Def Con from 0.00152103 to 0.00152103
Heightened Def Con from 0.00152104 to 0.00152105
Heightened Def Con from 0.00152578 to 0.00152578
Heightened Def Con from 0.00152578 to 0.00152578
Heightened Def Con from 0.00152591 to 0.00152591
Heightened Def Con from 0.00152592 to 0.00152593
Heightened Def Con from 0.00153065 to 0.00153065
Heightened Def Con from 0.00153093 to 0.00153093
Heightened Def Con from 0.00153095 to 0.00153095
Heightened Def Con from 0.00153543 to 0.00153543
Heightened Def Con from 0.00153607 to 0.00153607
Heightened Def Con from 0.00153608 to 0.00153609
Heightened Def Con from 0.00154013 to 0.00154013
Heightened Def Con from 0.00154131 to 0.00154131
Heightened Def Con from 0.00154132 to 0.00154133
Heightened Def Con from 0.00154477 to 0.00154478
Heightened Def Con from 0.00154478 to 0.00154478
Heightened Def Con from 0.00154662 to 0.00154663
Heightened Def Con from 0.00154663 to 0.00154663
Heightened Def Con from 0.0015494 to 0.0015494
Heightened Def Con from 0.0015494 to 0.0015494
Heightened Def Con from 0.00155198 to 0.00155198
Heightened Def Con from 0.00155402 to 0.00155402
Heightened Def Con from 0.00155731 to 0.00155732
Heightened Def Con from 0.00155732 to 0.00155732
Heightened Def Con from 0.00155866 to 0.00155866
Heightened Def Con from 0.00155867 to 0.00155867
Heightened Def Con from 0.00156258 to 0.00156258
Heightened Def Con from 0.00156259 to 0.00156259
Heightened Def Con from 0.00156333 to 0.00156334
Heightened Def Con from 0.00156334 to 0.00156334
Heightened Def Con from 0.00156335 to 0.00156336
Heightened Def Con from 0.00156775 to 0.00156776
Heightened Def Con from 0.00156776 to 0.00156776
Heightened Def Con from 0.00156808 to 0.00156809
Heightened Def Con from 0.00156809 to 0.00156809
Heightened Def Con from 0.0015681 to 0.00156811
Heightened Def Con from 0.00157281 to 0.00157281
Heightened Def Con from 0.00157291 to 0.00157291
Heightened Def Con from 0.00157292 to 0.00157293
Heightened Def Con from 0.00157774 to 0.00157774
Heightened Def Con from 0.00157785 to 0.00157785
Heightened Def Con from 0.00157786 to 0.00157787
Heightened Def Con from 0.00158255 to 0.00158255
Heightened Def Con from 0.00158291 to 0.00158291
Heightened Def Con from 0.00158291 to 0.00158291
Heightened Def Con from 0.00158292 to 0.00158293
Heightened Def Con from 0.00158727 to 0.00158727
Heightened Def Con from 0.00158806 to 0.00158806
Heightened Def Con from 0.00158807 to 0.00158808
Heightened Def Con from 0.00159191 to 0.00159191
Heightened Def Con from 0.00159328 to 0.00159329
Heightened Def Con from 0.00159329 to 0.00159329
Heightened Def Con from 0.0015933 to 0.00159331
Heightened Def Con from 0.00159651 to 0.00159651
Heightened Def Con from 0.00159857 to 0.00159857
Heightened Def Con from 0.00160109 to 0.00160109
Heightened Def Con from 0.00160109 to 0.00160111
Heightened Def Con from 0.00160386 to 0.00160386
Heightened Def Con from 0.00160566 to 0.00160566
Heightened Def Con from 0.00160912 to 0.00160913
Heightened Def Con from 0.00160913 to 0.00160913
Heightened Def Con from 0.00161028 to 0.00161028
Heightened Def Con from 0.00161029 to 0.0016103
Heightened Def Con from 0.00161432 to 0.00161432
Heightened Def Con from 0.00161432 to 0.00161432
Heightened Def Con from 0.00161495 to 0.00161495
Heightened Def Con from 0.00161496 to 0.00161497
Heightened Def Con from 0.00161942 to 0.00161943
Heightened Def Con from 0.00161943 to 0.00161943
Heightened Def Con from 0.0016197 to 0.0016197
Heightened Def Con from 0.00161971 to 0.00161972
Heightened Def Con from 0.00162443 to 0.00162443
Heightened Def Con from 0.00162455 to 0.00162456
Heightened Def Con from 0.00162457 to 0.00162457
Heightened Def Con from 0.00162932 to 0.00162932
Heightened Def Con from 0.00162932 to 0.00162932
Heightened Def Con from 0.00162955 to 0.00162955
Heightened Def Con from 0.00162956 to 0.00162957
Heightened Def Con from 0.00163412 to 0.00163412
Heightened Def Con from 0.00163412 to 0.00163412
Heightened Def Con from 0.00163465 to 0.00163465
Heightened Def Con from 0.00163466 to 0.00163467
Heightened Def Con from 0.00163884 to 0.00163884
Heightened Def Con from 0.00163986 to 0.00163986
Heightened Def Con from 0.00163988 to 0.00163988
Heightened Def Con from 0.0016435 to 0.00164351
Heightened Def Con from 0.00164351 to 0.00164351
Heightened Def Con from 0.00164516 to 0.00164517
Heightened Def Con from 0.00164517 to 0.00164517
Heightened Def Con from 0.00164518 to 0.00164519
Heightened Def Con from 0.00164813 to 0.00164813
Heightened Def Con from 0.00165052 to 0.00165052
Heightened Def Con from 0.00165052 to 0.00165054
Heightened Def Con from 0.00165275 to 0.00165275
Heightened Def Con from 0.00165586 to 0.00165586
Heightened Def Con from 0.00165737 to 0.00165738
Heightened Def Con from 0.00165738 to 0.00165738
Heightened Def Con from 0.00165739 to 0.00165739
Heightened Def Con from 0.00166115 to 0.00166115
Heightened Def Con from 0.00166205 to 0.00166205
Heightened Def Con from 0.00166206 to 0.00166207
Heightened Def Con from 0.00166635 to 0.00166635
Heightened Def Con from 0.00166677 to 0.00166678
Heightened Def Con from 0.00166678 to 0.00166678
Heightened Def Con from 0.00166679 to 0.0016668
Heightened Def Con from 0.00167144 to 0.00167144
Heightened Def Con from 0.00167158 to 0.00167158
Heightened Def Con from 0.00167158 to 0.00167158
Heightened Def Con from 0.00167159 to 0.0016716
Heightened Def Con from 0.0016764 to 0.0016764
Heightened Def Con from 0.00167647 to 0.00167648
Heightened Def Con from 0.00167648 to 0.00167648
Heightened Def Con from 0.00167649 to 0.0016765
Heightened Def Con from 0.00168124 to 0.00168124
Heightened Def Con from 0.00168124 to 0.00168124
Heightened Def Con from 0.00168151 to 0.00168152
Heightened Def Con from 0.00168152 to 0.00168152
Heightened Def Con from 0.00168153 to 0.00168153
Heightened Def Con from 0.00168598 to 0.00168598
Heightened Def Con from 0.00168663 to 0.00168664
Heightened Def Con from 0.00168664 to 0.00168664
Heightened Def Con from 0.00168665 to 0.00168666
Heightened Def Con from 0.00169064 to 0.00169064
Heightened Def Con from 0.00169064 to 0.00169064
Heightened Def Con from 0.00169184 to 0.00169185
Heightened Def Con from 0.00169185 to 0.00169185
Heightened Def Con from 0.00169186 to 0.00169187
Heightened Def Con from 0.00169525 to 0.00169525
Heightened Def Con from 0.00169525 to 0.00169525
Heightened Def Con from 0.00169712 to 0.00169712
Heightened Def Con from 0.00169983 to 0.00169983
Heightened Def Con from 0.00169983 to 0.00169983
Heightened Def Con from 0.00170241 to 0.00170241
Heightened Def Con from 0.0017044 to 0.0017044
Heightened Def Con from 0.00170768 to 0.00170769
Heightened Def Con from 0.00170769 to 0.00170769
Heightened Def Con from 0.001709 to 0.001709
Heightened Def Con from 0.001709 to 0.001709
Heightened Def Con from 0.00170902 to 0.00170902
Heightened Def Con from 0.00171291 to 0.00171291
Heightened Def Con from 0.00171366 to 0.00171366
Heightened Def Con from 0.00171367 to 0.00171368
Heightened Def Con from 0.00171804 to 0.00171804
Heightened Def Con from 0.00171804 to 0.00171804
Heightened Def Con from 0.00171839 to 0.00171839
Heightened Def Con from 0.0017184 to 0.00171841
Heightened Def Con from 0.00172307 to 0.00172307
Heightened Def Con from 0.00172307 to 0.00172307
Heightened Def Con from 0.00172321 to 0.00172321
Heightened Def Con from 0.00172322 to 0.00172323
Heightened Def Con from 0.00172799 to 0.00172799
Heightened Def Con from 0.00172799 to 0.00172799
Heightened Def Con from 0.00172817 to 0.00172817
Heightened Def Con from 0.00172818 to 0.00172818
Heightened Def Con from 0.00173282 to 0.00173282
Heightened Def Con from 0.00173324 to 0.00173324
Heightened Def Con from 0.00173325 to 0.00173326
Heightened Def Con from 0.00173753 to 0.00173753
Heightened Def Con from 0.00173755 to 0.00173755
Heightened Def Con from 0.00173756 to 0.00173756
Heightened Def Con from 0.00173843 to 0.00173843
Heightened Def Con from 0.00173844 to 0.00173845
Heightened Def Con from 0.00174223 to 0.00174223
Heightened Def Con from 0.00174223 to 0.00174223
Heightened Def Con from 0.0017437 to 0.0017437
Heightened Def Con from 0.0017437 to 0.0017437
Heightened Def Con from 0.00174372 to 0.00174372
Heightened Def Con from 0.00174687 to 0.00174687
Heightened Def Con from 0.00174905 to 0.00174905
Heightened Def Con from 0.00175148 to 0.00175148
Heightened Def Con from 0.0017544 to 0.0017544
Heightened Def Con from 0.00175611 to 0.00175611
Heightened Def Con from 0.00175971 to 0.00175971
Heightened Def Con from 0.00176076 to 0.00176076
Heightened Def Con from 0.00176076 to 0.00176076
Heightened Def Con from 0.00176078 to 0.00176078
Heightened Def Con from 0.00176493 to 0.00176493
Heightened Def Con from 0.00176547 to 0.00176547
Heightened Def Con from 0.00176548 to 0.00176548
Heightened Def Con from 0.00176549 to 0.00176549
Heightened Def Con from 0.00177005 to 0.00177005
Heightened Def Con from 0.00177025 to 0.00177025
Heightened Def Con from 0.00177026 to 0.00177026
Heightened Def Con from 0.00177027 to 0.00177028
Heightened Def Con from 0.00177505 to 0.00177505
Heightened Def Con from 0.00177505 to 0.00177505
Heightened Def Con from 0.00177512 to 0.00177512
Heightened Def Con from 0.00177513 to 0.00177513
Heightened Def Con from 0.00177992 to 0.00177992
Heightened Def Con from 0.00178012 to 0.00178012
Heightened Def Con from 0.00178013 to 0.00178013
Heightened Def Con from 0.00178014 to 0.00178015
Heightened Def Con from 0.00178469 to 0.00178469
Heightened Def Con from 0.00178522 to 0.00178522
Heightened Def Con from 0.00178522 to 0.00178522
Heightened Def Con from 0.00178523 to 0.00178524
Heightened Def Con from 0.00178937 to 0.00178937
Heightened Def Con from 0.00179041 to 0.00179041
Heightened Def Con from 0.00179042 to 0.00179043
Heightened Def Con from 0.00179399 to 0.00179399
Heightened Def Con from 0.00179567 to 0.00179567
Heightened Def Con from 0.00179568 to 0.00179568
Heightened Def Con from 0.00179858 to 0.00179858
Heightened Def Con from 0.00180096 to 0.00180096
Heightened Def Con from 0.00180315 to 0.00180315
Heightened Def Con from 0.00180624 to 0.00180625
Heightened Def Con from 0.00180625 to 0.00180625
Heightened Def Con from 0.00180774 to 0.00180774
Heightened Def Con from 0.00180775 to 0.00180776
Heightened Def Con from 0.00181148 to 0.00181148
Heightened Def Con from 0.00181148 to 0.00181148
Heightened Def Con from 0.00181238 to 0.00181238
Heightened Def Con from 0.00181239 to 0.0018124
Heightened Def Con from 0.00181664 to 0.00181664
Heightened Def Con from 0.00181709 to 0.00181709
Heightened Def Con from 0.0018171 to 0.0018171
Heightened Def Con from 0.0018217 to 0.0018217
Heightened Def Con from 0.00182188 to 0.00182188
Heightened Def Con from 0.0018219 to 0.0018219
Heightened Def Con from 0.00182666 to 0.00182666
Heightened Def Con from 0.00182679 to 0.00182679
Heightened Def Con from 0.0018268 to 0.00182681
Heightened Def Con from 0.0018315 to 0.0018315
Heightened Def Con from 0.0018315 to 0.0018315
Heightened Def Con from 0.00183184 to 0.00183186
Heightened Def Con from 0.00183626 to 0.00183626
Heightened Def Con from 0.001837 to 0.001837
Heightened Def Con from 0.00183701 to 0.00183701
Heightened Def Con from 0.00184095 to 0.00184095
Heightened Def Con from 0.00184096 to 0.00184096
Heightened Def Con from 0.00184225 to 0.00184225
Heightened Def Con from 0.00184226 to 0.00184227
Heightened Def Con from 0.0018456 to 0.0018456
Heightened Def Con from 0.00184758 to 0.00184758
Heightened Def Con from 0.00185022 to 0.00185022
Heightened Def Con from 0.00185293 to 0.00185293
Heightened Def Con from 0.00185293 to 0.00185295
Heightened Def Con from 0.00185484 to 0.00185484
Heightened Def Con from 0.00185826 to 0.00185826
Heightened Def Con from 0.00185948 to 0.00185948
Heightened Def Con from 0.00185949 to 0.00185951
Heightened Def Con from 0.0018635 to 0.00186351
Heightened Def Con from 0.00186351 to 0.00186351
Heightened Def Con from 0.00186417 to 0.00186418
Heightened Def Con from 0.00186418 to 0.00186418
Heightened Def Con from 0.00186419 to 0.00186419
Heightened Def Con from 0.00186866 to 0.00186866
Heightened Def Con from 0.00186866 to 0.00186866
Heightened Def Con from 0.00186894 to 0.00186894
Heightened Def Con from 0.00186894 to 0.00186894
Heightened Def Con from 0.00186895 to 0.00186896
Heightened Def Con from 0.00187369 to 0.00187369
Heightened Def Con from 0.00187377 to 0.00187377
Heightened Def Con from 0.00187377 to 0.00187377
Heightened Def Con from 0.00187378 to 0.00187379
Heightened Def Con from 0.0018786 to 0.0018786
Heightened Def Con from 0.00187874 to 0.00187874
Heightened Def Con from 0.00187875 to 0.00187875
Heightened Def Con from 0.00187876 to 0.00187876
Heightened Def Con from 0.00188339 to 0.00188339
Heightened Def Con from 0.00188381 to 0.00188382
Heightened Def Con from 0.00188382 to 0.00188382
Heightened Def Con from 0.00188383 to 0.00188384
Heightened Def Con from 0.00188809 to 0.00188809
Heightened Def Con from 0.00188897 to 0.00188898
Heightened Def Con from 0.00188898 to 0.00188898
Heightened Def Con from 0.00188899 to 0.001889
Heightened Def Con from 0.00189273 to 0.00189273
Heightened Def Con from 0.00189422 to 0.00189422
Heightened Def Con from 0.00189423 to 0.00189424
Heightened Def Con from 0.00189732 to 0.00189732
Heightened Def Con from 0.00189732 to 0.00189732
Heightened Def Con from 0.00189951 to 0.00189951
Heightened Def Con from 0.00190189 to 0.00190189
Heightened Def Con from 0.0019048 to 0.0019048
Heightened Def Con from 0.0019048 to 0.0019048
Heightened Def Con from 0.00190648 to 0.00190648
Heightened Def Con from 0.00190648 to 0.00190648
Heightened Def Con from 0.00191005 to 0.00191005
Heightened Def Con from 0.0019111 to 0.0019111
Heightened Def Con from 0.00191111 to 0.00191112
Heightened Def Con from 0.00191523 to 0.00191523
Heightened Def Con from 0.00191524 to 0.00191524
Heightened Def Con from 0.00191579 to 0.00191579
Heightened Def Con from 0.0019158 to 0.0019158
Heightened Def Con from 0.00192032 to 0.00192032
[...]
Heightened Def Con from 0.00247065 to 0.00247065
Heightened Def Con from 0.00247066 to 0.00247067
Heightened Def Con from 0.00247544 to 0.00247544
Heightened Def Con from 0.00247545 to 0.00247545
Heightened Def Con from 0.00247551 to 0.00247551
Heightened Def Con from 0.00247552 to 0.00247552
Heightened Def Con from 0.00247553 to 0.00247553
Heightened Def Con from 0.00248031 to 0.00248031
Heightened Def Con from 0.00248053 to 0.00248053
Heightened Def Con from 0.00248054 to 0.00248054
Heightened Def Con from 0.00248507 to 0.00248507
Heightened Def Con from 0.00248563 to 0.00248564
Heightened Def Con from 0.00248564 to 0.00248564
Heightened Def Con from 0.00248565 to 0.00248566
Heightened Def Con from 0.00248974 to 0.00248974
Heightened Def Con from 0.00249083 to 0.00249083
Heightened Def Con from 0.00249083 to 0.00249083
Heightened Def Con from 0.00249084 to 0.00249085
Heightened Def Con from 0.00249436 to 0.00249436
Heightened Def Con from 0.00249609 to 0.00249609
Heightened Def Con from 0.00249894 to 0.00249894
Heightened Def Con from 0.00250139 to 0.00250139
Heightened Def Con from 0.00250351 to 0.00250351
Heightened Def Con from 0.00250667 to 0.00250667
Heightened Def Con from 0.00250811 to 0.00250811
Heightened Def Con from 0.00250811 to 0.00250811
Heightened Def Con from 0.00250812 to 0.00250813
Heightened Def Con from 0.0025119 to 0.0025119
Heightened Def Con from 0.0025119 to 0.0025119
Heightened Def Con from 0.00251275 to 0.00251275
Heightened Def Con from 0.00251276 to 0.00251277
Heightened Def Con from 0.00251705 to 0.00251705
Heightened Def Con from 0.00251705 to 0.00251705
Heightened Def Con from 0.00251746 to 0.00251746
Heightened Def Con from 0.00251747 to 0.00251748
Heightened Def Con from 0.0025221 to 0.0025221
Heightened Def Con from 0.00252227 to 0.00252227
Heightened Def Con from 0.00252228 to 0.00252228
Heightened Def Con from 0.00252704 to 0.00252705
Heightened Def Con from 0.00252705 to 0.00252705
Heightened Def Con from 0.00252719 to 0.00252719
Heightened Def Con from 0.0025272 to 0.00252721
Heightened Def Con from 0.00253186 to 0.00253186
Heightened Def Con from 0.00253189 to 0.00253189
Heightened Def Con from 0.00253224 to 0.00253224
Heightened Def Con from 0.00253225 to 0.00253226
Heightened Def Con from 0.00253664 to 0.00253664
Heightened Def Con from 0.00253664 to 0.00253664
Heightened Def Con from 0.00253741 to 0.00253741
Heightened Def Con from 0.00253742 to 0.00253743
Heightened Def Con from 0.00254133 to 0.00254133
Heightened Def Con from 0.00254268 to 0.00254268
Heightened Def Con from 0.00254269 to 0.0025427
Heightened Def Con from 0.00254597 to 0.00254597
Heightened Def Con from 0.00254801 to 0.00254801
Heightened Def Con from 0.00255059 to 0.00255059
Heightened Def Con from 0.00255059 to 0.00255059
Heightened Def Con from 0.00255336 to 0.00255336
Heightened Def Con from 0.00255336 to 0.00255336
Heightened Def Con from 0.00255521 to 0.00255521
Heightened Def Con from 0.00255868 to 0.00255868
Heightened Def Con from 0.00255985 to 0.00255986
Heightened Def Con from 0.00255986 to 0.00255986
Heightened Def Con from 0.00255987 to 0.00255988
Heightened Def Con from 0.00256392 to 0.00256392
Heightened Def Con from 0.00256392 to 0.00256392
Heightened Def Con from 0.00256456 to 0.00256456
Heightened Def Con from 0.00256457 to 0.00256457
Heightened Def Con from 0.00256907 to 0.00256907
Heightened Def Con from 0.00256932 to 0.00256933
Heightened Def Con from 0.00256933 to 0.00256933
Heightened Def Con from 0.00256934 to 0.00256934
Heightened Def Con from 0.00257408 to 0.00257408
Heightened Def Con from 0.00257416 to 0.00257416
Heightened Def Con from 0.00257417 to 0.00257417
Heightened Def Con from 0.00257418 to 0.00257418
Heightened Def Con from 0.00257899 to 0.00257899
Heightened Def Con from 0.00257914 to 0.00257914
Heightened Def Con from 0.00257915 to 0.00257915
Heightened Def Con from 0.00257915 to 0.00257915
Heightened Def Con from 0.00258376 to 0.00258376
Heightened Def Con from 0.00258377 to 0.00258377
Heightened Def Con from 0.00258423 to 0.00258423
Heightened Def Con from 0.00258424 to 0.00258425
Heightened Def Con from 0.00258846 to 0.00258846
Heightened Def Con from 0.00258937 to 0.0025894
Heightened Def Con from 0.0025894 to 0.0025894
Heightened Def Con from 0.00258941 to 0.00258942
Heightened Def Con from 0.00259309 to 0.00259309
Heightened Def Con from 0.00259309 to 0.00259309
Heightened Def Con from 0.00259465 to 0.00259465
Heightened Def Con from 0.00259466 to 0.00259467
Heightened Def Con from 0.00259769 to 0.00259769
Heightened Def Con from 0.00259993 to 0.00259993
Heightened Def Con from 0.00260226 to 0.00260226
Heightened Def Con from 0.00260226 to 0.00260228
Heightened Def Con from 0.00260522 to 0.00260522
Heightened Def Con from 0.00260684 to 0.00260684
Heightened Def Con from 0.00260684 to 0.00260684
Heightened Def Con from 0.00261047 to 0.00261047
Heightened Def Con from 0.00261047 to 0.00261047
Heightened Def Con from 0.00261147 to 0.00261147
Heightened Def Con from 0.00261148 to 0.00261149
Heightened Def Con from 0.00261565 to 0.00261565
Heightened Def Con from 0.00261616 to 0.00261616
Heightened Def Con from 0.00261618 to 0.00261618
Heightened Def Con from 0.00262072 to 0.00262073
Heightened Def Con from 0.00262073 to 0.00262073
Heightened Def Con from 0.00262094 to 0.00262094
Heightened Def Con from 0.00262095 to 0.00262096
Heightened Def Con from 0.0026257 to 0.0026257
Heightened Def Con from 0.00262582 to 0.00262582
Heightened Def Con from 0.00262583 to 0.00262584
Heightened Def Con from 0.00263057 to 0.00263057
Heightened Def Con from 0.00263057 to 0.00263057
Heightened Def Con from 0.00263085 to 0.00263085
Heightened Def Con from 0.00263086 to 0.00263087
Heightened Def Con from 0.00263535 to 0.00263535
Heightened Def Con from 0.00263598 to 0.00263598
Heightened Def Con from 0.00263599 to 0.002636
Heightened Def Con from 0.00264005 to 0.00264005
Heightened Def Con from 0.00264005 to 0.00264005
Heightened Def Con from 0.00264122 to 0.00264122
Heightened Def Con from 0.00264123 to 0.00264124
Heightened Def Con from 0.0026447 to 0.0026447
Heightened Def Con from 0.0026447 to 0.0026447
Heightened Def Con from 0.00264653 to 0.00264654
Heightened Def Con from 0.00264654 to 0.00264654
Heightened Def Con from 0.00264932 to 0.00264932
Heightened Def Con from 0.00264932 to 0.00264932
Heightened Def Con from 0.00265189 to 0.00265189
Heightened Def Con from 0.00265394 to 0.00265394
Heightened Def Con from 0.00265722 to 0.00265722
Heightened Def Con from 0.00265855 to 0.00265855
Heightened Def Con from 0.00265858 to 0.00265858
Heightened Def Con from 0.00265859 to 0.0026586
Heightened Def Con from 0.00266249 to 0.00266249
Heightened Def Con from 0.00266325 to 0.00266326
Heightened Def Con from 0.00266326 to 0.00266326
Heightened Def Con from 0.00266327 to 0.00266328
Heightened Def Con from 0.00266766 to 0.00266767
Heightened Def Con from 0.00266767 to 0.00266767
Heightened Def Con from 0.002668 to 0.00266801
Heightened Def Con from 0.00266801 to 0.00266801
Heightened Def Con from 0.00266802 to 0.00266803
Heightened Def Con from 0.00267282 to 0.00267283
Heightened Def Con from 0.00267283 to 0.00267283
Heightened Def Con from 0.00267284 to 0.00267285
Heightened Def Con from 0.00267765 to 0.00267765
Heightened Def Con from 0.00267776 to 0.00267777
Heightened Def Con from 0.00267777 to 0.00267777
Heightened Def Con from 0.00267778 to 0.00267779
Heightened Def Con from 0.00268246 to 0.00268246
Heightened Def Con from 0.00268282 to 0.00268283
Heightened Def Con from 0.00268283 to 0.00268283
Heightened Def Con from 0.00268284 to 0.00268284
Heightened Def Con from 0.00268718 to 0.00268718
Heightened Def Con from 0.00268797 to 0.00268797
Heightened Def Con from 0.00268797 to 0.00268797
Heightened Def Con from 0.00268798 to 0.00268799
Heightened Def Con from 0.00269183 to 0.00269183
Heightened Def Con from 0.0026932 to 0.0026932
Heightened Def Con from 0.0026932 to 0.0026932
Heightened Def Con from 0.00269321 to 0.00269322
Heightened Def Con from 0.00269643 to 0.00269643
Heightened Def Con from 0.00269643 to 0.00269643
Heightened Def Con from 0.00269848 to 0.00269848
Heightened Def Con from 0.002701 to 0.002701
Heightened Def Con from 0.002701 to 0.00270103
Heightened Def Con from 0.00270377 to 0.00270377
Heightened Def Con from 0.00270378 to 0.00270378
Heightened Def Con from 0.00270559 to 0.00270559
Heightened Def Con from 0.00270904 to 0.00270904
Heightened Def Con from 0.00271021 to 0.00271022
Heightened Def Con from 0.00271424 to 0.00271424
Heightened Def Con from 0.00271487 to 0.00271487
Heightened Def Con from 0.00271488 to 0.00271489
Heightened Def Con from 0.00271934 to 0.00271934
Heightened Def Con from 0.00271935 to 0.00271935
Heightened Def Con from 0.00271962 to 0.00271962
Heightened Def Con from 0.00271963 to 0.00271964
Heightened Def Con from 0.00272435 to 0.00272435
Heightened Def Con from 0.00272435 to 0.00272435
Heightened Def Con from 0.00272447 to 0.00272447
Heightened Def Con from 0.00272448 to 0.00272448
Heightened Def Con from 0.00272924 to 0.00272924
Heightened Def Con from 0.00272945 to 0.00272945
Heightened Def Con from 0.00272947 to 0.00272947
Heightened Def Con from 0.00273404 to 0.00273404
Heightened Def Con from 0.00273405 to 0.00273405
Heightened Def Con from 0.00273456 to 0.00273456
Heightened Def Con from 0.00273457 to 0.00273458
Heightened Def Con from 0.00273876 to 0.00273877
Heightened Def Con from 0.00273877 to 0.00273877
Heightened Def Con from 0.00273978 to 0.00273978
Heightened Def Con from 0.00273979 to 0.0027398
Heightened Def Con from 0.00274343 to 0.00274343
Heightened Def Con from 0.00274507 to 0.00274507
Heightened Def Con from 0.00274507 to 0.00274507
Heightened Def Con from 0.00274509 to 0.0027451
Heightened Def Con from 0.00274806 to 0.00274806
Heightened Def Con from 0.00275042 to 0.00275042
Heightened Def Con from 0.00275042 to 0.00275044
Heightened Def Con from 0.00275267 to 0.00275267
Heightened Def Con from 0.00275576 to 0.00275576
Heightened Def Con from 0.0027573 to 0.0027573
Heightened Def Con from 0.00275731 to 0.00275732
Heightened Def Con from 0.00276106 to 0.00276106
Heightened Def Con from 0.00276197 to 0.00276197
Heightened Def Con from 0.00276197 to 0.00276197
Heightened Def Con from 0.00276198 to 0.00276199
Heightened Def Con from 0.00276626 to 0.00276626
Heightened Def Con from 0.00276626 to 0.00276626
Heightened Def Con from 0.00276669 to 0.0027667
Heightened Def Con from 0.0027667 to 0.0027667
Heightened Def Con from 0.00276671 to 0.00276672
Heightened Def Con from 0.00277134 to 0.00277134
Heightened Def Con from 0.0027715 to 0.0027715
Heightened Def Con from 0.0027715 to 0.0027715
Heightened Def Con from 0.00277151 to 0.00277152
Heightened Def Con from 0.0027763 to 0.00277631
Heightened Def Con from 0.00277631 to 0.00277631
Heightened Def Con from 0.00277639 to 0.0027764
Heightened Def Con from 0.0027764 to 0.0027764
Heightened Def Con from 0.00277641 to 0.00277641
Heightened Def Con from 0.00278115 to 0.00278116
Heightened Def Con from 0.00278116 to 0.00278116
Heightened Def Con from 0.00278143 to 0.00278143
Heightened Def Con from 0.00278143 to 0.00278143
Heightened Def Con from 0.00278144 to 0.00278145
Heightened Def Con from 0.0027859 to 0.0027859
Heightened Def Con from 0.0027859 to 0.0027859
Heightened Def Con from 0.00278655 to 0.00278655
Heightened Def Con from 0.00278656 to 0.00278657
Heightened Def Con from 0.00279056 to 0.00279056
Heightened Def Con from 0.00279176 to 0.00279176
Heightened Def Con from 0.00279177 to 0.00279178
Heightened Def Con from 0.00279517 to 0.00279517
Heightened Def Con from 0.00279703 to 0.00279703
Heightened Def Con from 0.00279975 to 0.00279975
Heightened Def Con from 0.00279975 to 0.00279975
Heightened Def Con from 0.00280232 to 0.00280232
Heightened Def Con from 0.00280232 to 0.00280232
Heightened Def Con from 0.00280433 to 0.00280433
Heightened Def Con from 0.0028076 to 0.0028076
Heightened Def Con from 0.00280892 to 0.00280893
Heightened Def Con from 0.00280893 to 0.00280893
Heightened Def Con from 0.00280894 to 0.00280895
Heightened Def Con from 0.00281282 to 0.00281282
Heightened Def Con from 0.00281358 to 0.00281358
Heightened Def Con from 0.00281359 to 0.0028136
Heightened Def Con from 0.00281795 to 0.00281795
Heightened Def Con from 0.00281796 to 0.00281796
Heightened Def Con from 0.00281831 to 0.00281831
Heightened Def Con from 0.00281832 to 0.00281833
Heightened Def Con from 0.00282299 to 0.00282299
Heightened Def Con from 0.00282313 to 0.00282313
Heightened Def Con from 0.00282314 to 0.00282315
Heightened Def Con from 0.00282791 to 0.00282791
Heightened Def Con from 0.00282807 to 0.00282807
Heightened Def Con from 0.00282809 to 0.00282809
Heightened Def Con from 0.00283273 to 0.00283274
Heightened Def Con from 0.00283274 to 0.00283274
Heightened Def Con from 0.00283315 to 0.00283315
Heightened Def Con from 0.00283317 to 0.00283317
Heightened Def Con from 0.00283748 to 0.00283748
Heightened Def Con from 0.00283833 to 0.00283833
Heightened Def Con from 0.00283834 to 0.00283835
Heightened Def Con from 0.00284216 to 0.00284216
Heightened Def Con from 0.00284361 to 0.00284361
Heightened Def Con from 0.00284361 to 0.00284361
Heightened Def Con from 0.00284362 to 0.00284363
Heightened Def Con from 0.00284679 to 0.00284679
Heightened Def Con from 0.00284895 to 0.00284896
Heightened Def Con from 0.00285141 to 0.00285141
Heightened Def Con from 0.0028543 to 0.0028543
Heightened Def Con from 0.0028543 to 0.0028543
Heightened Def Con from 0.00285602 to 0.00285603
Heightened Def Con from 0.00285603 to 0.00285603
Heightened Def Con from 0.00285961 to 0.00285961
Heightened Def Con from 0.00286068 to 0.00286069
Heightened Def Con from 0.00286069 to 0.00286069
Heightened Def Con from 0.0028607 to 0.0028607
Heightened Def Con from 0.00286484 to 0.00286484
Heightened Def Con from 0.00286539 to 0.0028654
Heightened Def Con from 0.0028654 to 0.0028654
Heightened Def Con from 0.00286541 to 0.00286541
Heightened Def Con from 0.00286996 to 0.00286996
Heightened Def Con from 0.00286996 to 0.00286996
Heightened Def Con from 0.00287017 to 0.00287017
Heightened Def Con from 0.00287018 to 0.00287018
Heightened Def Con from 0.00287018 to 0.00287018
Heightened Def Con from 0.00287019 to 0.0028702
Heightened Def Con from 0.00287496 to 0.00287496
Heightened Def Con from 0.00287496 to 0.00287496
Heightened Def Con from 0.00287503 to 0.00287504
Heightened Def Con from 0.00287504 to 0.00287504
Heightened Def Con from 0.00287505 to 0.00287506
Heightened Def Con from 0.00287984 to 0.00287984
Heightened Def Con from 0.00288004 to 0.00288004
Heightened Def Con from 0.00288005 to 0.00288005
Heightened Def Con from 0.00288006 to 0.00288006
Heightened Def Con from 0.00288461 to 0.00288461
Heightened Def Con from 0.00288514 to 0.00288514
Heightened Def Con from 0.00288515 to 0.00288516
Heightened Def Con from 0.00288929 to 0.00288929
Heightened Def Con from 0.00289032 to 0.00289032
Heightened Def Con from 0.00289033 to 0.00289033
Heightened Def Con from 0.00289034 to 0.00289035
Heightened Def Con from 0.00289391 to 0.00289391
Heightened Def Con from 0.00289557 to 0.00289558
Heightened Def Con from 0.00289558 to 0.00289558
Heightened Def Con from 0.00289559 to 0.0028956
Heightened Def Con from 0.0028985 to 0.0028985
Heightened Def Con from 0.00290087 to 0.00290087
Heightened Def Con from 0.00290087 to 0.00290089
Heightened Def Con from 0.00290616 to 0.00290616
Heightened Def Con from 0.00290616 to 0.00290616
Heightened Def Con from 0.00290766 to 0.00290766
Heightened Def Con from 0.00290766 to 0.00290766
Heightened Def Con from 0.00290767 to 0.00290768
Heightened Def Con from 0.00291139 to 0.0029114
Heightened Def Con from 0.0029114 to 0.0029114
Heightened Def Con from 0.0029123 to 0.0029123
Heightened Def Con from 0.00291231 to 0.00291232
Heightened Def Con from 0.00291656 to 0.00291656
Heightened Def Con from 0.00291701 to 0.00291701
Heightened Def Con from 0.00291702 to 0.00291702
Heightened Def Con from 0.00292162 to 0.00292162
Heightened Def Con from 0.0029218 to 0.0029218
Heightened Def Con from 0.00292181 to 0.00292182
Heightened Def Con from 0.00292657 to 0.00292657
Heightened Def Con from 0.00292657 to 0.00292657
Heightened Def Con from 0.0029267 to 0.0029267
Heightened Def Con from 0.00292671 to 0.00292672
Heightened Def Con from 0.00293142 to 0.00293142
Heightened Def Con from 0.00293175 to 0.00293175
Heightened Def Con from 0.00293176 to 0.00293176
Heightened Def Con from 0.00293619 to 0.00293619
Heightened Def Con from 0.0029369 to 0.0029369
Heightened Def Con from 0.00293692 to 0.00293692
Heightened Def Con from 0.00294088 to 0.00294088
Heightened Def Con from 0.00294088 to 0.00294088
Heightened Def Con from 0.00294216 to 0.00294216
Heightened Def Con from 0.00294217 to 0.00294218
Heightened Def Con from 0.00294552 to 0.00294552
Heightened Def Con from 0.00294749 to 0.00294749
Heightened Def Con from 0.00295014 to 0.00295014
Heightened Def Con from 0.00295284 to 0.00295284
Heightened Def Con from 0.00295284 to 0.00295286
Heightened Def Con from 0.00295476 to 0.00295476
Heightened Def Con from 0.00295817 to 0.00295817
Heightened Def Con from 0.0029594 to 0.00295941
Heightened Def Con from 0.00295941 to 0.00295941
Heightened Def Con from 0.00295942 to 0.00295943
Heightened Def Con from 0.00296342 to 0.00296342
Heightened Def Con from 0.00296409 to 0.0029641
Heightened Def Con from 0.0029641 to 0.0029641
Heightened Def Con from 0.00296411 to 0.00296412
Heightened Def Con from 0.00296857 to 0.00296857
Heightened Def Con from 0.00296886 to 0.00296886
Heightened Def Con from 0.00296886 to 0.00296886
Heightened Def Con from 0.00296887 to 0.00296888
Heightened Def Con from 0.0029736 to 0.0029736
Heightened Def Con from 0.0029736 to 0.0029736
Heightened Def Con from 0.00297369 to 0.00297369
Heightened Def Con from 0.00297369 to 0.00297369
Heightened Def Con from 0.00297852 to 0.00297852
Heightened Def Con from 0.00297866 to 0.00297866
Heightened Def Con from 0.00297866 to 0.00297866
Heightened Def Con from 0.00297867 to 0.00297868
Heightened Def Con from 0.00298331 to 0.00298331
Heightened Def Con from 0.00298331 to 0.00298331
Heightened Def Con from 0.00298373 to 0.00298373
Heightened Def Con from 0.00298373 to 0.00298373
Heightened Def Con from 0.00298374 to 0.00298375
Heightened Def Con from 0.00298801 to 0.00298801
Heightened Def Con from 0.00298801 to 0.00298801
Heightened Def Con from 0.0029889 to 0.0029889
Heightened Def Con from 0.00298891 to 0.00298891
Heightened Def Con from 0.00299265 to 0.00299265
Heightened Def Con from 0.00299413 to 0.00299414
Heightened Def Con from 0.00299415 to 0.00299416
Heightened Def Con from 0.00299724 to 0.00299724
Heightened Def Con from 0.00299942 to 0.00299942
N-Period=1
Fourier components of V(vo)
DC component:-0.187933

Harmonic	Frequency	 Fourier 	Normalized	 Phase  	Normalized
 Number 	  [Hz]   	Component	 Component	[degree]	Phase [deg]
    1   	1.000e+04	2.817e+01	1.000e+00	  -15.36°	    0.00°
    2   	2.000e+04	3.128e-02	1.111e-03	   87.30°	  102.66°
    3   	3.000e+04	1.471e-01	5.222e-03	  105.16°	  120.52°
    4   	4.000e+04	5.788e-03	2.055e-04	  159.46°	  174.82°
    5   	5.000e+04	2.829e-02	1.004e-03	  -37.81°	  -22.45°
    6   	6.000e+04	2.054e-02	7.292e-04	   42.52°	   57.88°
    7   	7.000e+04	3.783e-02	1.343e-03	   31.57°	   46.93°
    8   	8.000e+04	1.646e-02	5.844e-04	   22.22°	   37.58°
    9   	9.000e+04	2.957e-02	1.050e-03	   22.08°	   37.44°
Total Harmonic Distortion: 0.577321%(5.352575%)



Date: Mon Mar 02 15:57:31 2020
Total elapsed time: 717.511 seconds.

tnom = 27
temp = 27
method = modified trap
totiter = 7295836
traniter = 7295836
tranpoints = 2205643
accept = 1643176
rejected = 564256
matrix size = 370
fillins = 565
solver = Alternate
Thread vector: 57.5/32.0[5] 20.7/10.3[5] 13.6/3.8[5] 4.3/6.9[1]  2592/500
Matrix Compiler1: 64.40 KB object code size  13.8/8.7/[4.9]
Matrix Compiler2: 42.79 KB object code size  6.5/7.1/[3.4]

