
**** 04/03/20 19:39:29 ****** PSpice 17.2.0 (March 2016) ****** ID# 0 ********

 ** Profile: "SCHEMATIC1-tran"  [ C:\Users\Ema\Desktop\DCE-GRUPO10\REALIMENTADOR\PSpice\realimentador-pspicefiles\schematic1\tran.sim


 ****     CIRCUIT DESCRIPTION


******************************************************************************




** Creating circuit file "tran.cir" 
** WARNING: THIS AUTOMATICALLY GENERATED FILE MAY BE OVERWRITTEN BY SUBSEQUENT SIMULATIONS

*Libraries: 
* Profile Libraries :
* Local Libraries :
.LIB "../../../lib/ucc20520_pspice_trans/ucc20520_trans.lib" 
* From [PSPICE NETLIST] section of C:\Cadence\SPB_Data\cdssetup\OrCAD_PSpice\17.2.0\PSpice.ini file:
.lib "nom.lib" 

*Analysis directives: 
.TRAN  0 11m 1m 
.FOUR 1E3 9 V([VO]) 
.OPTIONS ADVCONV
.OPTIONS SOLVER= 1
.OPTIONS METHOD= Default
.OPTIONS THREADS= 8
.AUTOCONVERGE ITL1=1000 ITL2=1000 ITL4=1000 RELTOL=0.05 ABSTOL=1.0E-6 VNTOL=.001 PIVTOL=1.0E-10 
.PROBE64 V(alias(*)) I(alias(*)) W(alias(*)) D(alias(*)) NOISE(alias(*)) 
.INC "..\SCHEMATIC1.net" 



**** INCLUDING SCHEMATIC1.net ****
* source REALIMENTADOR
V_V2         VTRIANG 0  
+PULSE -1.5 1.5 0 2.499u 2.499u 1n 5u
V_V3         VCC 0 30Vdc
V_V5         5V 0 5Vdc
V_V4         0 VEE 30Vdc
X_U2         VSIN VTRIANG VCC VEE N23431 0 LM311 
V_V6         VSIN 0  
+SIN 0 1.1 1k 0 0 0
R_R12         N23431 5V  1k TC=0,0 
R_R2         N24524 N24432  10 TC=0,0 
C_C1         0 N24776  2.2n  TC=0,0 
V_V1         N24524 VEE 12Vdc
C_C3         VEE N24524  10u  TC=0,0 
R_R9         N24692 0  1 TC=0,0 
R_R10         0 N24720  1 TC=0,0 
R_R8         N24604 0  1 TC=0,0 
C_C2         VEE N24524  10u  TC=0,0 
C_C5         VS N24414  1u  TC=0,0 
D_D6         N24432 N24414 D1N4148 
C_C6         VS N24414  100n  TC=0,0 
C_C4         VEE N24524  220n  TC=0,0 
R_R1         0 N24776  2.2k TC=0,0 
R_R11         0 N24634  1 TC=0,0 
X_U1         0 N24776 0 N24634 N24720 N24692 N24604 HO LO PWM_IN 5V 5V N24414
+  N24524 VS VEE UCC20520_TRANS
R_R13         PWM_IN N23431  51 TC=0,0 
C_C10         0 PWM_IN  33p  TC=0,0 
R_R4         HO N26343  3.3 TC=0,0 
L_L1         VS VO  33u  
D_D3         N26337 HO MURS320T3G 
C_C7         VS N26343  1n  TC=0,0 
R_R7         0 VO  8 TC=0,0 
D_D4         N26555 LO MURS320T3G 
C_C9         0 VO  330n  TC=0,0 
X_M1         VCC N26343 VS PHB27NQ10T/PLP
R_R5         N26337 N26343  1.2 TC=0,0 
R_R6         N26555 N26561  1.2 TC=0,0 
X_M2         VS N26561 VEE PHB27NQ10T/PLP
R_R3         LO N26561  3.3 TC=0,0 
C_C8         VEE N26561  1n  TC=0,0 

**** RESUMING tran.cir ****
.END

**** 04/03/20 19:39:29 ****** PSpice 17.2.0 (March 2016) ****** ID# 0 ********

 ** Profile: "SCHEMATIC1-tran"  [ C:\Users\Ema\Desktop\DCE-GRUPO10\REALIMENTADOR\PSpice\realimentador-pspicefiles\schematic1\tran.sim


 ****     Diode MODEL PARAMETERS


******************************************************************************




               D1N4148         MURS320T3G      X_U2.dx         X_M1.Dbody      
          IS    2.682000E-09   23.789000E-09  800.000000E-18   10.000000E-15 
           N    1.836           1.6119                           .85         
         ISR    1.565000E-09   19.406000E-09                                 
          NR                    3.5766                                       
         IKF     .04417        61.67                            1.000000E+03 
          BV  100             200                             100            
         IBV  100.000000E-06  800.000000E-09                  250.000000E-06 
          RS     .5664          8.451400E-03                    8.300000E-03 
          TT   11.540000E-09   35.000000E-09                   60.000000E-09 
         CJO    4.000000E-12  137.580000E-12                                 
          VJ     .5             1.4981                           .4          
           M     .3333           .49862                                      
          EG                    1.0274                                       
         XTI                    5.000000E-09                                 


               X_M2.Dbody      X_U1.X_U48.dd   X_U1.X_U40.dd   X_U1.X_U47.dd   
          IS   10.000000E-15   10.000000E-15   10.000000E-15   10.000000E-15 
           N     .85            1.000000E-03    1.000000E-03    1.000000E-03 
         IKF    1.000000E+03                                                 
          BV  100                                                            
         IBV  250.000000E-06                                                 
          RS    8.300000E-03                                                 
          TT   60.000000E-09                                                 
          VJ     .4                                                          


               X_U1.X_U57.dd   X_U1.X_U55.dd   X_U1.X_U33.dd   X_U1.X_U37.dd   
          IS   10.000000E-15   10.000000E-15   10.000000E-15   10.000000E-15 
           N    1.000000E-03    1.000000E-03    1.000000E-03    1.000000E-03 


               X_U1.X_U38.dd   X_U1.X_U35.dd   X_U1.X_U56.dd   X_U1.X_U59.dd   
          IS   10.000000E-15   10.000000E-15   10.000000E-15   10.000000E-15 
           N    1.000000E-03    1.000000E-03    1.000000E-03    1.000000E-03 


               X_U1.X_U60.dd   X_U1.X_U39.dd   
          IS   10.000000E-15   10.000000E-15 
           N    1.000000E-03    1.000000E-03 


**** 04/03/20 19:39:29 ****** PSpice 17.2.0 (March 2016) ****** ID# 0 ********

 ** Profile: "SCHEMATIC1-tran"  [ C:\Users\Ema\Desktop\DCE-GRUPO10\REALIMENTADOR\PSpice\realimentador-pspicefiles\schematic1\tran.sim


 ****     BJT MODEL PARAMETERS


******************************************************************************




               X_U2.qin        X_U2.qmi        X_U2.qmo        X_U2.qoc        
               PNP             NPN             NPN             NPN             
       LEVEL    1               1               1               1            
          IS  800.000000E-18  800.000000E-18  800.000000E-18  800.000000E-18 
          BF  500               1.002000E+03    1.000000E+03  206.900000E+03 
          NF    1               1               1               1            
          BR    1               1               1               1            
          NR    1               1               1               1            
         ISS    0               0               0               0            
          RE    0               0               0               0            
          RC    0               0               0               0            
         CJE    0               0               0               0            
         VJE     .75             .75             .75             .75         
         CJC    0               0               1.000000E-15    1.000000E-15 
         VJC     .75             .75             .75             .75         
         MJC     .33             .33             .33             .33         
        XCJC    1               1               1               1            
         CJS    0               0               0               0            
         VJS     .75             .75             .75             .75         
          TF                                                    7.855000E-12 
          TR                                  124.200000E-09   83.830000E-09 
          KF    0               0               0               0            
          AF    1               1               1               1            
          CN    2.2             2.42            2.42            2.42         
           D     .52             .87             .87             .87         


**** 04/03/20 19:39:29 ****** PSpice 17.2.0 (March 2016) ****** ID# 0 ********

 ** Profile: "SCHEMATIC1-tran"  [ C:\Users\Ema\Desktop\DCE-GRUPO10\REALIMENTADOR\PSpice\realimentador-pspicefiles\schematic1\tran.sim


 ****     MOSFET MODEL PARAMETERS


******************************************************************************




               X_M1.MOST1      X_M1.MOST2      X_M2.MOST1      X_M2.MOST2      
               NMOS            NMOS            NMOS            NMOS            
       LEVEL    3               3               3               3            
           L  300.000000E-09  300.000000E-09  300.000000E-09  300.000000E-09 
           W     .1              .1              .1              .1          
         VTO    3.73           -2.7             3.73           -2.7          
          KP   40.800000E-06   40.800000E-06   40.800000E-06   40.800000E-06 
       GAMMA    0               0               0               0            
         PHI     .6              .6              .6              .6          
      LAMBDA    0               0               0               0            
          RD                    1.000000E+03                    1.000000E+03 
          RS                    1.000000E+03                    1.000000E+03 
          IS    0               0               0               0            
          JS    0               0               0               0            
          PB     .8              .8              .8              .8          
        PBSW     .8              .8              .8              .8          
          CJ    0               0               0               0            
        CJSW    0               0               0               0            
        CGSO    0               0               0               0            
        CGDO    0               0               0               0            
        CGBO    0               0               0               0            
         NFS    1.100000E+12                    1.100000E+12                 
         TOX  100.000000E-09  100.000000E-09  100.000000E-09  100.000000E-09 
          XJ  500.000000E-09  500.000000E-09  500.000000E-09  500.000000E-09 
          UO  650             650             650             650            
       UCRIT   10.000000E+03   10.000000E+03   10.000000E+03   10.000000E+03 
       DELTA     .1              .1              .1              .1          
         ETA  100.000000E-06  100.000000E-06  100.000000E-06  100.000000E-06 
       KAPPA     .1              .1              .1              .1          
      DIOMOD    1               1               1               1            
         VFB    0               0               0               0            
        LETA    0               0               0               0            
        WETA    0               0               0               0            
          U0    0               0               0               0            
        TEMP    0               0               0               0            
         VDD    5               5               5               5            
       XPART    0               0               0               0            


               X_U1.X_M13._mod X_U1.X_M15._mod X_U1.X_M14._mod X_U1.X_M12._mod 
               NMOS            NMOS            NMOS            NMOS            
       LEVEL    1               1               1               1            
           L   10.000000E-09   10.000000E-09   10.000000E-09   10.000000E-09 
           W    2.4             2.4              .285            .285        
         VTO    0               0               0               0            
          KP    2.000000E-09    2.000000E-09    2.000000E-09    2.000000E-09 
       GAMMA    0               0               0               0            
         PHI     .6              .6              .6              .6          
      LAMBDA    0               0               0               0            
          IS   10.000000E-15   10.000000E-15   10.000000E-15   10.000000E-15 
          JS    0               0               0               0            
           N    2.5             2.5             2.5             2.5          
          PB     .8              .8              .8              .8          
        PBSW     .8              .8              .8              .8          
          CJ    0               0               0               0            
        CJSW    0               0               0               0            
        CGSO    0               0               0               0            
        CGDO    0               0               0               0            
        CGBO    0               0               0               0            
         TOX    0               0               0               0            
          XJ    0               0               0               0            
       UCRIT   10.000000E+03   10.000000E+03   10.000000E+03   10.000000E+03 
      DIOMOD    1               1               1               1            
         VFB    0               0               0               0            
        LETA    0               0               0               0            
        WETA    0               0               0               0            
          U0    0               0               0               0            
        TEMP    0               0               0               0            
         VDD    5               5               5               5            
       XPART    0               0               0               0            


**** 04/03/20 19:39:29 ****** PSpice 17.2.0 (March 2016) ****** ID# 0 ********

 ** Profile: "SCHEMATIC1-tran"  [ C:\Users\Ema\Desktop\DCE-GRUPO10\REALIMENTADOR\PSpice\realimentador-pspicefiles\schematic1\tran.sim


 ****     Resistor MODEL PARAMETERS


******************************************************************************




               X_M1.Rtemp      X_M2.Rtemp      
           R    1               1            
         TC1    6.810000E-03    6.810000E-03 
         TC2   28.600000E-06   28.600000E-06 


**** 04/03/20 19:39:29 ****** PSpice 17.2.0 (March 2016) ****** ID# 0 ********

 ** Profile: "SCHEMATIC1-tran"  [ C:\Users\Ema\Desktop\DCE-GRUPO10\REALIMENTADOR\PSpice\realimentador-pspicefiles\schematic1\tran.sim


 ****     Voltage Controlled Switch MODEL PARAMETERS


******************************************************************************




               X_U1.X_S1._S1   X_U1.X_S6._S6   X_U1.X_S3._S3   X_U1.X_S4._S4   
         RON     .01            5.000000E-03   25               5.000000E-03 
        ROFF    1.000000E+09    1.000000E+06    1.000000E+06    1.000000E+06 
         VON    4               4.5             4.5             4.5          
        VOFF    1                .5              .5              .5          


               X_U1.X_S5._S5   X_U1.X_S2._S2   
         RON   25                .01         
        ROFF    1.000000E+06    1.000000E+09 
         VON    4.5             4            
        VOFF     .5             1            


**** 04/03/20 19:39:29 ****** PSpice 17.2.0 (March 2016) ****** ID# 0 ********

 ** Profile: "SCHEMATIC1-tran"  [ C:\Users\Ema\Desktop\DCE-GRUPO10\REALIMENTADOR\PSpice\realimentador-pspicefiles\schematic1\tran.sim


 ****     INITIAL TRANSIENT SOLUTION       TEMPERATURE =   27.000 DEG C


******************************************************************************



 NODE   VOLTAGE     NODE   VOLTAGE     NODE   VOLTAGE     NODE   VOLTAGE


(   5V)    5.0000  (   HO)-662.0E-06  (   LO)  -30.0000  (   VO)-63.17E-09      

(   VS)-63.17E-09  (  VCC)   30.0000  (  VEE)  -30.0000  ( VSIN)    0.0000      

(N23431)    4.9751 (N24414)    -.0013 (N24432)  -18.0000 (N24524)  -18.0000     

(N24604)    0.0000 (N24634)    0.0000 (N24692)    0.0000 (N24720)    0.0000     

(N24776)    4.9977 (N26337)-662.0E-06 (N26343)-662.0E-06 (N26555)  -30.0000     

(N26561)  -30.0000 (PWM_IN)    4.9739 (X_M1.4)    2.9359 (X_M1.5)   30.0000     

(X_M1.6)-662.0E-06 (X_M2.4)  -27.0630 (X_M2.5)-63.17E-09 (X_M2.6)  -30.0000     

(X_U2.7)    -.3892 (X_U2.8)  -29.3500 (X_U2.9)  -29.9820 (VTRIANG)   -1.5000    

(X_M1.11)   30.0000                   (X_M1.12)   30.0000                       

(X_M1.22)-662.0E-06                   (X_M1.33)-63.17E-09                       

(X_M2.11)-63.17E-09                   (X_M2.12)-63.17E-09                       

(X_M2.22)  -30.0000                   (X_M2.33)  -30.0000                       

(X_U2.10)     .0179                   (X_U2.11)     .0179                       

(X_U2.21)     .4500                   (X_U2.22)   -1.0500                       

(X_U1.DIS)    0.0000                  (X_U1.DRVA)    0.0000                     

(X_U1.DRVB)    0.0000                 (X_U1.NO_DT)    0.0000                    

(X_U1.PWMIN)    1.0000                (X_U1.UVLO1)    5.0000                    

(X_U1.UVLO2)    0.0000                (X_U1.INA_OK)    5.0000                   

(X_U1.INB_OK)    0.0000               (X_U1.PWMINB)    0.0000                   

(X_U1.UVLO2B)    5.0000               (X_U1.INA_INT)    4.9739                  

(X_U1.INA_OKD)    5.0000              (X_U1.INA_PRE)    5.0000                  

(X_U1.INB_OKD)    0.0000              (X_U1.INB_PRE)    0.0000                  

(X_U1.VCCI_INT)    5.0000             (X_U1.DRVA_PASS)    0.0000                

(X_U1.DRVB_PASS)    0.0000            (X_U1.FAULT_INP)    5.0000                

(X_U1.N16668890)    8.5000            (X_U1.N16668898)    8.5000                

(X_U1.N16669068)    0.0000            (X_U1.N16669308)-662.0E-06                

(X_U1.N16669580)    5.0000            (X_U1.N16669674)    0.0000                

(X_U1.N16669834)    2.7000            (X_U1.N16669842)    2.5000                

(X_U1.N16669858)    5.0000            (X_U1.N16670120) 90.87E-06                

(X_U1.N16670154)    2.0000            (X_U1.N16670162)-22.27E-18                

(X_U1.N16670228)    0.0000            (X_U1.N16670408)    0.0000                

(X_U1.N16670672)    1.0000            (X_U1.N16670780)    -.0013                

(X_U1.N16670790)    0.0000            (X_U1.N16670816)    4.9977                

(X_U1.N16670888)    8.5000            (X_U1.N16670896)    8.0000                

(X_U1.N16671044)   12.0000            (X_U1.N16671166)    0.0000                

(X_U1.N16671236)    0.0000            (X_U1.N16671468)    0.0000                

(X_U1.N16671552) 8.020E-15            (X_U1.N16671580)    2.0000                

(X_U1.N16671640)    0.0000            (X_U1.N16671702)    0.0000                

(X_U1.N16671830)    5.0000            (X_U1.N16671850)    0.0000                

(X_U1.N16672106)    1.0000            (X_U1.N16672276)    1.8000                

(X_U1.N16672306)    1.0000            (X_U1.N16672528)    1.0000                

(X_U1.N16672594)    0.0000            (X_U1.N16672776)  -18.0000                

(X_U1.N16672784)  -30.0000            (X_U1.N16672968)  -30.0000                

(X_U1.N16673112)    0.0000            (X_U1.N16673358)    0.0000                

(X_U1.N16673432)    1.8000            (X_U1.N16673492)    1.8000                

(X_U1.N16673790)    0.0000            (X_U1.N16698404)    5.0000                

(X_U1.N16970878)    -.0013            (X_U1.N17051744)    5.0000                

(X_U1.N17051757)    5.0000            (X_U1.N17051771)  -25.0000                

(X_U1.N17088411)-500.0E-06            (X_U1.N17110019)    5.0000                

(X_U1.N17110021)    5.0000            (X_U1.N17110038)    5.0000                

(X_U1.N17127259)-63.18E-09            (X_U1.N17153666)    5.0000                

(X_U1.N17167704)  -30.0000            (X_U1.N17167706)    5.0000                

(X_U1.N17196585)    0.0000            (X_U1.N17198437)    5.0000                

(X_U1.N17201974)    5.0000            (X_U1.N17396123)-15.66E-21                

(X_U1.N17407797)    5.0000            (X_U1.N167201110)-73.22E-21               

(X_U1.N167208610)    5.0000           (X_U1.N167216030)    5.0000               

(X_U1.X_U42.YINT)    0.0000           (X_U1.X_U43.YINT)    5.0000               

(X_U1.X_U44.YINT)    5.0000           (X_U1.X_U54.YINT)    5.0000               

(X_U1.X_U61.YINT)    5.0000           (X_U1.X_U62.YINT)    5.0000               

(X_U1.DEAD_THRESH)     .0023          (X_U1.UVLO1_DELAYED)    5.0000            

(X_U1.UVLO2_DELAYED) 10.77E-18        (X_U1.UVLO2B_DELAYED)    5.0000       




    VOLTAGE SOURCE CURRENTS
    NAME         CURRENT

    V_V2         1.996E-07
    V_V3        -8.566E-03
    V_V5        -4.797E-03
    V_V4        -8.566E-03
    V_V6        -3.043E-11
    V_V1        -1.212E-03
    X_U2.vi1    -3.043E-11
    X_U2.vi2     1.996E-07
    X_U2.v1     -4.958E-12
    X_U1.V_V8   -4.010E-12
    X_U1.V_V1    0.000E+00
    X_U1.V_V10   0.000E+00
    X_U1.V_V11   0.000E+00
    X_U1.V_V6    0.000E+00
    X_U1.V_V12   0.000E+00
    X_U1.V_V13   0.000E+00
    X_U1.V_V2    0.000E+00
    X_U1.V_V14   0.000E+00
    X_U1.V_V9    0.000E+00
    X_U1.V_V7    0.000E+00
    X_U1.V_V3    0.000E+00
    X_U1.V_V5   -4.543E-02
    X_U1.X_H1.VH_H1   2.272E-03

    TOTAL POWER DISSIPATION   6.43E-01  WATTS

Time step =  3.662E-15 is too small in Transient Analysis at
Time =  1.370E-06.  Minimum allowable step size =  11.00E-15.
         The device which is changing too fast is D_D4.



  Last node voltages tried were:

 NODE   VOLTAGE     NODE   VOLTAGE     NODE   VOLTAGE     NODE   VOLTAGE


(   5V)    5.0000  (   HO)-662.1E-06  (   LO)  -30.0000  (   VO)-63.17E-09      

(   VS)-110.2E-09  (  VCC)   30.0000  (  VEE)  -30.0000  ( VSIN)     .0095      

(N23431)     .1233 (N24414)    -.0013 (N24432)  -18.0000 (N24524)  -18.0000     

(N24604)    0.0000 (N24634)    0.0000 (N24692)    0.0000 (N24720)    0.0000     

(N24776)    4.9977 (N26337)-662.1E-06 (N26343)-662.1E-06 (N26555)  -30.0000     

(N26561)  -30.0000 (PWM_IN)     .1239 (X_M1.4)    2.9358 (X_M1.5)   30.0000     

(X_M1.6)-746.6E-06 (X_M2.4)  -27.0630 (X_M2.5)-55.17E-06 (X_M2.6)  -30.0000     

(X_U2.7)    1.1202 (X_U2.8)  -29.4750 (X_U2.9)  -29.2380 (VTRIANG)     .1452    

(X_M1.11)   30.0000                   (X_M1.12)   30.0000                       

(X_M1.22)-746.6E-06                   (X_M1.33)-84.63E-06                       

(X_M2.11)-55.17E-06                   (X_M2.12)-55.17E-06                       

(X_M2.22)  -30.0000                   (X_M2.33)  -30.0000                       

(X_U2.10)     .7622                   (X_U2.11)     .7622                       

(X_U2.21)     .4595                   (X_U2.22)     .5952                       

(X_U1.DIS)    0.0000                  (X_U1.DRVA)    0.0000                     

(X_U1.DRVB)    0.0000                 (X_U1.NO_DT)    0.0000                    

(X_U1.PWMIN)    0.0000                (X_U1.UVLO1)    5.0000                    

(X_U1.UVLO2)    0.0000                (X_U1.INA_OK) 2.470E-09                   

(X_U1.INB_OK)    5.0000               (X_U1.PWMINB)    1.0000                   

(X_U1.UVLO2B)    5.0000               (X_U1.INA_INT)     .1239                  

(X_U1.INA_OKD) 2.470E-09              (X_U1.INA_PRE)    0.0000                  

(X_U1.INB_OKD)    5.0000              (X_U1.INB_PRE)    5.0000                  

(X_U1.VCCI_INT)    5.0000             (X_U1.DRVA_PASS)    0.0000                

(X_U1.DRVB_PASS)    0.0000            (X_U1.FAULT_INP)    5.0000                

(X_U1.N16668890)    8.5000            (X_U1.N16668898)    8.5000                

(X_U1.N16669068)    0.0000            (X_U1.N16669308)-662.1E-06                

(X_U1.N16669580) 2.470E-09            (X_U1.N16669674)    0.0000                

(X_U1.N16669834)    2.7000            (X_U1.N16669842)    2.5000                

(X_U1.N16669858)    5.0000            (X_U1.N16670120)    2.0005                

(X_U1.N16670154)    2.0000            (X_U1.N16670162)    5.0093                

(X_U1.N16670228)    5.0000            (X_U1.N16670408)    0.0000                

(X_U1.N16670672)    1.0000            (X_U1.N16670780)    -.0013                

(X_U1.N16670790)    0.0000            (X_U1.N16670816)    4.9977                

(X_U1.N16670888)    8.5000            (X_U1.N16670896)    8.0000                

(X_U1.N16671044)   12.0000            (X_U1.N16671166)    0.0000                

(X_U1.N16671236)    0.0000            (X_U1.N16671468)    5.0000                

(X_U1.N16671552)    1.0357            (X_U1.N16671580)    2.0000                

(X_U1.N16671640)    5.0000            (X_U1.N16671702)    2.4999                

(X_U1.N16671830)     .0240            (X_U1.N16671850)    0.0000                

(X_U1.N16672106)    1.0000            (X_U1.N16672276)    1.8000                

(X_U1.N16672306)    1.8000            (X_U1.N16672528)     .0019                

(X_U1.N16672594)    0.0000            (X_U1.N16672776)  -18.0000                

(X_U1.N16672784)  -30.0000            (X_U1.N16672968)  -30.0000                

(X_U1.N16673112)    5.0000            (X_U1.N16673358)    0.0000                

(X_U1.N16673432)    1.8000            (X_U1.N16673492)    1.8000                

(X_U1.N16673790)     .9981            (X_U1.N16698404)    5.0000                

(X_U1.N16970878)    -.0013            (X_U1.N17051744)    5.0000                

(X_U1.N17051757)    5.0000            (X_U1.N17051771)  -25.0000                

(X_U1.N17088411)-500.1E-06            (X_U1.N17110019)    5.0000                

(X_U1.N17110021)    5.0000            (X_U1.N17110038)    5.0000                

(X_U1.N17127259)-110.2E-09            (X_U1.N17153666)    5.0000                

(X_U1.N17167704)  -30.0000            (X_U1.N17167706)    5.0000                

(X_U1.N17196585)    0.0000            (X_U1.N17198437)    5.0000                

(X_U1.N17201974)    5.0000            (X_U1.N17396123)    5.0001                

(X_U1.N17407797) 234.1E-06            (X_U1.N167201110) 1.392E-24               

(X_U1.N167208610)    5.0000           (X_U1.N167216030)    5.0000               

(X_U1.X_U42.YINT)    0.0000           (X_U1.X_U43.YINT)    5.0000               

(X_U1.X_U44.YINT)    5.0000           (X_U1.X_U54.YINT)    5.0000               

(X_U1.X_U61.YINT)    5.0000           (X_U1.X_U62.YINT)    5.0000               

(X_U1.DEAD_THRESH)     .0023          (X_U1.UVLO1_DELAYED)    5.0000            

(X_U1.UVLO2_DELAYED) 10.57E-18        (X_U1.UVLO2B_DELAYED)    5.0000       

Resuming Simulation with the following settings
ITL4 = 1000
RELTOL = 0.0086

Convergence problem in transient analysis at Time =  3.854E-06
         Time step =  2.183E-15, minimum allowable step size =  11.00E-15

  These voltages failed to converge:

    V(X_M2.22)                =   932.04mV  \   941.56mV
    V(X_M2.33)                =    69.85mV  \    79.24mV
    V(X_M2.4)                 =   160.80mV  \   170.17mV

  These supply currents failed to converge:

    I(X_U1.E_E15)             =  -359.91nA  \   445.67nA

  These devices failed to converge:
    X_M1.M2   



  Last node voltages tried were:

 NODE   VOLTAGE     NODE   VOLTAGE     NODE   VOLTAGE     NODE   VOLTAGE


(   5V)    5.0000  (   HO)   61.6210  (   LO)  -29.7000  (   VO)   -6.0181      

(   VS)   61.7090  (  VCC)   30.0000  (  VEE)  -30.0000  ( VSIN)     .0266      

(N23431)    4.0640 (N24414)   63.7850 (N24432)  -24.2910 (N24524)  -18.0000     

(N24604)    0.0000 (N24634)    0.0000 (N24692)    0.0000 (N24720)    0.0000     

(N24776)    4.9977 (N26337)   61.1640 (N26343)   61.1440 (N26555)  -29.0190     

(N26561)  -28.7450 (PWM_IN)    4.0162 (X_M1.4)   32.0770 (X_M1.5)   58.7290     

(X_M1.6)   29.1640 (X_M2.4)     .1608 (X_M2.5)   33.8270 (X_M2.6)    3.2011     

(X_U2.7)     .9859 (X_U2.8)  -29.3530 (X_U2.9)  -29.9670 (VTRIANG)    -.1248    

(X_M1.11)   58.7290                   (X_M1.12)   58.7290                       

(X_M1.22)   30.6020                   (X_M1.33)   30.6890                       

(X_M2.11)   33.8270                   (X_M2.12)   33.8270                       

(X_M2.22)     .9320                   (X_M2.33)     .0699                       

(X_U2.10)     .0328                   (X_U2.11)     .0328                       

(X_U2.21)     .4766                   (X_U2.22)     .3252                       

(X_U1.DIS)    0.0000                  (X_U1.DRVA)    0.0000                     

(X_U1.DRVB)    0.0000                 (X_U1.NO_DT)    0.0000                    

(X_U1.PWMIN)    1.0000                (X_U1.UVLO1)    5.0000                    

(X_U1.UVLO2)    0.0000                (X_U1.INA_OK)    5.0000                   

(X_U1.INB_OK) 2.344E-09               (X_U1.PWMINB)    0.0000                   

(X_U1.UVLO2B)    5.0000               (X_U1.INA_INT)    4.0162                  

(X_U1.INA_OKD)    5.0000              (X_U1.INA_PRE)    5.0000                  

(X_U1.INB_OKD) 2.344E-09              (X_U1.INB_PRE)    0.0000                  

(X_U1.VCCI_INT)    5.0000             (X_U1.DRVA_PASS)    0.0000                

(X_U1.DRVB_PASS)    0.0000            (X_U1.FAULT_INP)    5.0000                

(X_U1.N16668890)    8.5000            (X_U1.N16668898)    8.5000                

(X_U1.N16669068)    0.0000            (X_U1.N16669308)   61.6210                

(X_U1.N16669580)    5.0000            (X_U1.N16669674)    0.0000                

(X_U1.N16669834)    2.7000            (X_U1.N16669842)    2.5000                

(X_U1.N16669858)    5.0000            (X_U1.N16670120)   -1.2585                

(X_U1.N16670154)    2.0000            (X_U1.N16670162)     .0407                

(X_U1.N16670228)    0.0000            (X_U1.N16670408)    0.0000                

(X_U1.N16670672)    1.0000            (X_U1.N16670780)    2.0760                

(X_U1.N16670790)    0.0000            (X_U1.N16670816)    4.9977                

(X_U1.N16670888)    8.5000            (X_U1.N16670896)    8.0000                

(X_U1.N16671044)   12.0000            (X_U1.N16671166)    0.0000                

(X_U1.N16671236)    0.0000            (X_U1.N16671468)-2.014E-06                

(X_U1.N16671552)    2.0004            (X_U1.N16671580)    2.0000                

(X_U1.N16671640)    5.0000            (X_U1.N16671702)    5.0000                

(X_U1.N16671830)    5.1295            (X_U1.N16671850)    0.0000                

(X_U1.N16672106)    1.0000            (X_U1.N16672276)    1.8000                

(X_U1.N16672306)    1.0000            (X_U1.N16672528)     .9991                

(X_U1.N16672594)    0.0000            (X_U1.N16672776)  -18.0000                

(X_U1.N16672784)  -29.7000            (X_U1.N16672968)  -29.7700                

(X_U1.N16673112) 2.344E-09            (X_U1.N16673358)    0.0000                

(X_U1.N16673432)    1.8000            (X_U1.N16673492)    1.8000                

(X_U1.N16673790) 878.6E-06            (X_U1.N16698404)    5.0000                

(X_U1.N16970878)   63.7850            (X_U1.N17051744)    4.8114                

(X_U1.N17051757)    5.0000            (X_U1.N17051771)  -25.1890                

(X_U1.N17088411)   61.6430            (X_U1.N17110019)    5.0000                

(X_U1.N17110021)    5.0000            (X_U1.N17110038)   66.7090                

(X_U1.N17127259)   61.7090            (X_U1.N17153666)    5.0000                

(X_U1.N17167704)  -30.0000            (X_U1.N17167706)    5.0000                

(X_U1.N17196585)    0.0000            (X_U1.N17198437)    5.0000                

(X_U1.N17201974)    5.0000            (X_U1.N17396123) 9.437E-06                

(X_U1.N17407797)    5.0117            (X_U1.N167201110) 1.345E-24               

(X_U1.N167208610)    5.0000           (X_U1.N167216030)    5.0000               

(X_U1.X_U42.YINT)    0.0000           (X_U1.X_U43.YINT)    5.0000               

(X_U1.X_U44.YINT)    5.0000           (X_U1.X_U54.YINT)    5.0000               

(X_U1.X_U61.YINT)    5.0000           (X_U1.X_U62.YINT)    5.0000               

(X_U1.DEAD_THRESH)     .0023          (X_U1.UVLO1_DELAYED)    5.0000            

(X_U1.UVLO2_DELAYED) 10.21E-18        (X_U1.UVLO2B_DELAYED)    5.0000       

Resuming Simulation with the following settings
ITL4 = 1000
ABSTOL = 1.26e-010

Convergence problem in transient analysis at Time =  3.854E-06
         Time step =  2.183E-15, minimum allowable step size =  11.00E-15

  These voltages failed to converge:

    V(X_M2.22)                =   931.86mV  \   941.56mV
    V(X_M2.33)                =    69.68mV  \    79.24mV
    V(X_M2.4)                 =   160.63mV  \   170.17mV

  These supply currents failed to converge:

    I(X_U1.E_E15)             =   -76.90nA  \   445.67nA

  These devices failed to converge:
    X_M1.M2   



  Last node voltages tried were:

 NODE   VOLTAGE     NODE   VOLTAGE     NODE   VOLTAGE     NODE   VOLTAGE


(   5V)    5.0000  (   HO)   61.6210  (   LO)  -29.7000  (   VO)   -6.0181      

(   VS)   61.7090  (  VCC)   30.0000  (  VEE)  -30.0000  ( VSIN)     .0266      

(N23431)    4.0640 (N24414)   63.7850 (N24432)  -24.2910 (N24524)  -18.0000     

(N24604)    0.0000 (N24634)    0.0000 (N24692)    0.0000 (N24720)    0.0000     

(N24776)    4.9977 (N26337)   61.1640 (N26343)   61.1440 (N26555)  -29.0190     

(N26561)  -28.7450 (PWM_IN)    4.0162 (X_M1.4)   32.0770 (X_M1.5)   58.7290     

(X_M1.6)   29.1630 (X_M2.4)     .1606 (X_M2.5)   33.8270 (X_M2.6)    3.2009     

(X_U2.7)     .9859 (X_U2.8)  -29.3530 (X_U2.9)  -29.9670 (VTRIANG)    -.1248    

(X_M1.11)   58.7290                   (X_M1.12)   58.7290                       

(X_M1.22)   30.6020                   (X_M1.33)   30.6890                       

(X_M2.11)   33.8270                   (X_M2.12)   33.8270                       

(X_M2.22)     .9319                   (X_M2.33)     .0697                       

(X_U2.10)     .0328                   (X_U2.11)     .0328                       

(X_U2.21)     .4766                   (X_U2.22)     .3252                       

(X_U1.DIS)    0.0000                  (X_U1.DRVA)    0.0000                     

(X_U1.DRVB)    0.0000                 (X_U1.NO_DT)    0.0000                    

(X_U1.PWMIN)    1.0000                (X_U1.UVLO1)    5.0000                    

(X_U1.UVLO2)    0.0000                (X_U1.INA_OK)    5.0000                   

(X_U1.INB_OK) 2.344E-09               (X_U1.PWMINB)    0.0000                   

(X_U1.UVLO2B)    5.0000               (X_U1.INA_INT)    4.0162                  

(X_U1.INA_OKD)    5.0000              (X_U1.INA_PRE)    5.0000                  

(X_U1.INB_OKD) 2.344E-09              (X_U1.INB_PRE)    0.0000                  

(X_U1.VCCI_INT)    5.0000             (X_U1.DRVA_PASS)    0.0000                

(X_U1.DRVB_PASS)    0.0000            (X_U1.FAULT_INP)    5.0000                

(X_U1.N16668890)    8.5000            (X_U1.N16668898)    8.5000                

(X_U1.N16669068)    0.0000            (X_U1.N16669308)   61.6210                

(X_U1.N16669580)    5.0000            (X_U1.N16669674)    0.0000                

(X_U1.N16669834)    2.7000            (X_U1.N16669842)    2.5000                

(X_U1.N16669858)    5.0000            (X_U1.N16670120)   -1.2585                

(X_U1.N16670154)    2.0000            (X_U1.N16670162)     .0407                

(X_U1.N16670228)    0.0000            (X_U1.N16670408)    0.0000                

(X_U1.N16670672)    1.0000            (X_U1.N16670780)    2.0760                

(X_U1.N16670790)    0.0000            (X_U1.N16670816)    4.9977                

(X_U1.N16670888)    8.5000            (X_U1.N16670896)    8.0000                

(X_U1.N16671044)   12.0000            (X_U1.N16671166)    0.0000                

(X_U1.N16671236)    0.0000            (X_U1.N16671468)-2.014E-06                

(X_U1.N16671552)    2.0004            (X_U1.N16671580)    2.0000                

(X_U1.N16671640)    5.0000            (X_U1.N16671702)    5.0000                

(X_U1.N16671830)    5.1295            (X_U1.N16671850)    0.0000                

(X_U1.N16672106)    1.0000            (X_U1.N16672276)    1.8000                

(X_U1.N16672306)    1.0000            (X_U1.N16672528)     .9991                

(X_U1.N16672594)    0.0000            (X_U1.N16672776)  -18.0000                

(X_U1.N16672784)  -29.7000            (X_U1.N16672968)  -29.7700                

(X_U1.N16673112) 2.344E-09            (X_U1.N16673358)    0.0000                

(X_U1.N16673432)    1.8000            (X_U1.N16673492)    1.8000                

(X_U1.N16673790) 878.6E-06            (X_U1.N16698404)    5.0000                

(X_U1.N16970878)   63.7850            (X_U1.N17051744)    4.8114                

(X_U1.N17051757)    5.0000            (X_U1.N17051771)  -25.1890                

(X_U1.N17088411)   61.6430            (X_U1.N17110019)    5.0000                

(X_U1.N17110021)    5.0000            (X_U1.N17110038)   66.7090                

(X_U1.N17127259)   61.7090            (X_U1.N17153666)    5.0000                

(X_U1.N17167704)  -30.0000            (X_U1.N17167706)    5.0000                

(X_U1.N17196585)    0.0000            (X_U1.N17198437)    5.0000                

(X_U1.N17201974)    5.0000            (X_U1.N17396123) 9.437E-06                

(X_U1.N17407797)    5.0117            (X_U1.N167201110) 1.345E-24               

(X_U1.N167208610)    5.0000           (X_U1.N167216030)    5.0000               

(X_U1.X_U42.YINT)    0.0000           (X_U1.X_U43.YINT)    5.0000               

(X_U1.X_U44.YINT)    5.0000           (X_U1.X_U54.YINT)    5.0000               

(X_U1.X_U61.YINT)    5.0000           (X_U1.X_U62.YINT)    5.0000               

(X_U1.DEAD_THRESH)     .0023          (X_U1.UVLO1_DELAYED)    5.0000            

(X_U1.UVLO2_DELAYED) 10.21E-18        (X_U1.UVLO2B_DELAYED)    5.0000       

Resuming Simulation with the following settings
ABSTOL = 1.58e-008

Convergence problem in transient analysis at Time =  3.854E-06
         Time step =  2.183E-15, minimum allowable step size =  11.00E-15

  These voltages failed to converge:

    V(X_M2.22)                =   931.86mV  \   941.56mV
    V(X_M2.33)                =    69.68mV  \    79.24mV
    V(X_M2.4)                 =   160.63mV  \   170.17mV

  These supply currents failed to converge:

    I(X_U1.E_E15)             =   -76.90nA  \   445.67nA

  These devices failed to converge:
    X_M1.M2   



  Last node voltages tried were:

 NODE   VOLTAGE     NODE   VOLTAGE     NODE   VOLTAGE     NODE   VOLTAGE


(   5V)    5.0000  (   HO)   61.6210  (   LO)  -29.7000  (   VO)   -6.0181      

(   VS)   61.7090  (  VCC)   30.0000  (  VEE)  -30.0000  ( VSIN)     .0266      

(N23431)    4.0640 (N24414)   63.7850 (N24432)  -24.2910 (N24524)  -18.0000     

(N24604)    0.0000 (N24634)    0.0000 (N24692)    0.0000 (N24720)    0.0000     

(N24776)    4.9977 (N26337)   61.1640 (N26343)   61.1440 (N26555)  -29.0190     

(N26561)  -28.7450 (PWM_IN)    4.0162 (X_M1.4)   32.0770 (X_M1.5)   58.7290     

(X_M1.6)   29.1630 (X_M2.4)     .1606 (X_M2.5)   33.8270 (X_M2.6)    3.2009     

(X_U2.7)     .9859 (X_U2.8)  -29.3530 (X_U2.9)  -29.9670 (VTRIANG)    -.1248    

(X_M1.11)   58.7290                   (X_M1.12)   58.7290                       

(X_M1.22)   30.6020                   (X_M1.33)   30.6890                       

(X_M2.11)   33.8270                   (X_M2.12)   33.8270                       

(X_M2.22)     .9319                   (X_M2.33)     .0697                       

(X_U2.10)     .0328                   (X_U2.11)     .0328                       

(X_U2.21)     .4766                   (X_U2.22)     .3252                       

(X_U1.DIS)    0.0000                  (X_U1.DRVA)    0.0000                     

(X_U1.DRVB)    0.0000                 (X_U1.NO_DT)    0.0000                    

(X_U1.PWMIN)    1.0000                (X_U1.UVLO1)    5.0000                    

(X_U1.UVLO2)    0.0000                (X_U1.INA_OK)    5.0000                   

(X_U1.INB_OK) 2.344E-09               (X_U1.PWMINB)    0.0000                   

(X_U1.UVLO2B)    5.0000               (X_U1.INA_INT)    4.0162                  

(X_U1.INA_OKD)    5.0000              (X_U1.INA_PRE)    5.0000                  

(X_U1.INB_OKD) 2.344E-09              (X_U1.INB_PRE)    0.0000                  

(X_U1.VCCI_INT)    5.0000             (X_U1.DRVA_PASS)    0.0000                

(X_U1.DRVB_PASS)    0.0000            (X_U1.FAULT_INP)    5.0000                

(X_U1.N16668890)    8.5000            (X_U1.N16668898)    8.5000                

(X_U1.N16669068)    0.0000            (X_U1.N16669308)   61.6210                

(X_U1.N16669580)    5.0000            (X_U1.N16669674)    0.0000                

(X_U1.N16669834)    2.7000            (X_U1.N16669842)    2.5000                

(X_U1.N16669858)    5.0000            (X_U1.N16670120)   -1.2585                

(X_U1.N16670154)    2.0000            (X_U1.N16670162)     .0407                

(X_U1.N16670228)    0.0000            (X_U1.N16670408)    0.0000                

(X_U1.N16670672)    1.0000            (X_U1.N16670780)    2.0760                

(X_U1.N16670790)    0.0000            (X_U1.N16670816)    4.9977                

(X_U1.N16670888)    8.5000            (X_U1.N16670896)    8.0000                

(X_U1.N16671044)   12.0000            (X_U1.N16671166)    0.0000                

(X_U1.N16671236)    0.0000            (X_U1.N16671468)-2.014E-06                

(X_U1.N16671552)    2.0004            (X_U1.N16671580)    2.0000                

(X_U1.N16671640)    5.0000            (X_U1.N16671702)    5.0000                

(X_U1.N16671830)    5.1295            (X_U1.N16671850)    0.0000                

(X_U1.N16672106)    1.0000            (X_U1.N16672276)    1.8000                

(X_U1.N16672306)    1.0000            (X_U1.N16672528)     .9991                

(X_U1.N16672594)    0.0000            (X_U1.N16672776)  -18.0000                

(X_U1.N16672784)  -29.7000            (X_U1.N16672968)  -29.7700                

(X_U1.N16673112) 2.344E-09            (X_U1.N16673358)    0.0000                

(X_U1.N16673432)    1.8000            (X_U1.N16673492)    1.8000                

(X_U1.N16673790) 878.6E-06            (X_U1.N16698404)    5.0000                

(X_U1.N16970878)   63.7850            (X_U1.N17051744)    4.8114                

(X_U1.N17051757)    5.0000            (X_U1.N17051771)  -25.1890                

(X_U1.N17088411)   61.6430            (X_U1.N17110019)    5.0000                

(X_U1.N17110021)    5.0000            (X_U1.N17110038)   66.7090                

(X_U1.N17127259)   61.7090            (X_U1.N17153666)    5.0000                

(X_U1.N17167704)  -30.0000            (X_U1.N17167706)    5.0000                

(X_U1.N17196585)    0.0000            (X_U1.N17198437)    5.0000                

(X_U1.N17201974)    5.0000            (X_U1.N17396123) 9.437E-06                

(X_U1.N17407797)    5.0117            (X_U1.N167201110) 1.345E-24               

(X_U1.N167208610)    5.0000           (X_U1.N167216030)    5.0000               

(X_U1.X_U42.YINT)    0.0000           (X_U1.X_U43.YINT)    5.0000               

(X_U1.X_U44.YINT)    5.0000           (X_U1.X_U54.YINT)    5.0000               

(X_U1.X_U61.YINT)    5.0000           (X_U1.X_U62.YINT)    5.0000               

(X_U1.DEAD_THRESH)     .0023          (X_U1.UVLO1_DELAYED)    5.0000            

(X_U1.UVLO2_DELAYED) 10.21E-18        (X_U1.UVLO2B_DELAYED)    5.0000       

Resuming Simulation with the following settings
ABSTOL = 1e-006

Convergence problem in transient analysis at Time =  3.854E-06
         Time step =  2.183E-15, minimum allowable step size =  11.00E-15

  These voltages failed to converge:

    V(X_M2.22)                =   931.86mV  \   941.56mV
    V(X_M2.33)                =    69.68mV  \    79.24mV
    V(X_M2.4)                 =   160.63mV  \   170.17mV

  These devices failed to converge:
    X_M1.M2   



  Last node voltages tried were:

 NODE   VOLTAGE     NODE   VOLTAGE     NODE   VOLTAGE     NODE   VOLTAGE


(   5V)    5.0000  (   HO)   61.6210  (   LO)  -29.7000  (   VO)   -6.0181      

(   VS)   61.7090  (  VCC)   30.0000  (  VEE)  -30.0000  ( VSIN)     .0266      

(N23431)    4.0640 (N24414)   63.7850 (N24432)  -24.2910 (N24524)  -18.0000     

(N24604)    0.0000 (N24634)    0.0000 (N24692)    0.0000 (N24720)    0.0000     

(N24776)    4.9977 (N26337)   61.1640 (N26343)   61.1440 (N26555)  -29.0190     

(N26561)  -28.7450 (PWM_IN)    4.0162 (X_M1.4)   32.0770 (X_M1.5)   58.7290     

(X_M1.6)   29.1630 (X_M2.4)     .1606 (X_M2.5)   33.8270 (X_M2.6)    3.2009     

(X_U2.7)     .9859 (X_U2.8)  -29.3530 (X_U2.9)  -29.9670 (VTRIANG)    -.1248    

(X_M1.11)   58.7290                   (X_M1.12)   58.7290                       

(X_M1.22)   30.6020                   (X_M1.33)   30.6890                       

(X_M2.11)   33.8270                   (X_M2.12)   33.8270                       

(X_M2.22)     .9319                   (X_M2.33)     .0697                       

(X_U2.10)     .0328                   (X_U2.11)     .0328                       

(X_U2.21)     .4766                   (X_U2.22)     .3252                       

(X_U1.DIS)    0.0000                  (X_U1.DRVA)    0.0000                     

(X_U1.DRVB)    0.0000                 (X_U1.NO_DT)    0.0000                    

(X_U1.PWMIN)    1.0000                (X_U1.UVLO1)    5.0000                    

(X_U1.UVLO2)    0.0000                (X_U1.INA_OK)    5.0000                   

(X_U1.INB_OK) 2.344E-09               (X_U1.PWMINB)    0.0000                   

(X_U1.UVLO2B)    5.0000               (X_U1.INA_INT)    4.0162                  

(X_U1.INA_OKD)    5.0000              (X_U1.INA_PRE)    5.0000                  

(X_U1.INB_OKD) 2.344E-09              (X_U1.INB_PRE)    0.0000                  

(X_U1.VCCI_INT)    5.0000             (X_U1.DRVA_PASS)    0.0000                

(X_U1.DRVB_PASS)    0.0000            (X_U1.FAULT_INP)    5.0000                

(X_U1.N16668890)    8.5000            (X_U1.N16668898)    8.5000                

(X_U1.N16669068)    0.0000            (X_U1.N16669308)   61.6210                

(X_U1.N16669580)    5.0000            (X_U1.N16669674)    0.0000                

(X_U1.N16669834)    2.7000            (X_U1.N16669842)    2.5000                

(X_U1.N16669858)    5.0000            (X_U1.N16670120)   -1.2585                

(X_U1.N16670154)    2.0000            (X_U1.N16670162)     .0407                

(X_U1.N16670228)    0.0000            (X_U1.N16670408)    0.0000                

(X_U1.N16670672)    1.0000            (X_U1.N16670780)    2.0760                

(X_U1.N16670790)    0.0000            (X_U1.N16670816)    4.9977                

(X_U1.N16670888)    8.5000            (X_U1.N16670896)    8.0000                

(X_U1.N16671044)   12.0000            (X_U1.N16671166)    0.0000                

(X_U1.N16671236)    0.0000            (X_U1.N16671468)-2.014E-06                

(X_U1.N16671552)    2.0004            (X_U1.N16671580)    2.0000                

(X_U1.N16671640)    5.0000            (X_U1.N16671702)    5.0000                

(X_U1.N16671830)    5.1295            (X_U1.N16671850)    0.0000                

(X_U1.N16672106)    1.0000            (X_U1.N16672276)    1.8000                

(X_U1.N16672306)    1.0000            (X_U1.N16672528)     .9991                

(X_U1.N16672594)    0.0000            (X_U1.N16672776)  -18.0000                

(X_U1.N16672784)  -29.7000            (X_U1.N16672968)  -29.7700                

(X_U1.N16673112) 2.344E-09            (X_U1.N16673358)    0.0000                

(X_U1.N16673432)    1.8000            (X_U1.N16673492)    1.8000                

(X_U1.N16673790) 878.6E-06            (X_U1.N16698404)    5.0000                

(X_U1.N16970878)   63.7850            (X_U1.N17051744)    4.8114                

(X_U1.N17051757)    5.0000            (X_U1.N17051771)  -25.1890                

(X_U1.N17088411)   61.6430            (X_U1.N17110019)    5.0000                

(X_U1.N17110021)    5.0000            (X_U1.N17110038)   66.7090                

(X_U1.N17127259)   61.7090            (X_U1.N17153666)    5.0000                

(X_U1.N17167704)  -30.0000            (X_U1.N17167706)    5.0000                

(X_U1.N17196585)    0.0000            (X_U1.N17198437)    5.0000                

(X_U1.N17201974)    5.0000            (X_U1.N17396123) 9.437E-06                

(X_U1.N17407797)    5.0117            (X_U1.N167201110) 1.345E-24               

(X_U1.N167208610)    5.0000           (X_U1.N167216030)    5.0000               

(X_U1.X_U42.YINT)    0.0000           (X_U1.X_U43.YINT)    5.0000               

(X_U1.X_U44.YINT)    5.0000           (X_U1.X_U54.YINT)    5.0000               

(X_U1.X_U61.YINT)    5.0000           (X_U1.X_U62.YINT)    5.0000               

(X_U1.DEAD_THRESH)     .0023          (X_U1.UVLO1_DELAYED)    5.0000            

(X_U1.UVLO2_DELAYED) 10.21E-18        (X_U1.UVLO2B_DELAYED)    5.0000       

Resuming Simulation with the following settings
RELTOL = 0.05

Convergence problem in transient analysis at Time =  3.854E-06
         Time step =  8.731E-15, minimum allowable step size =  11.00E-15

  These devices failed to converge:
    X_M1.M2   



  Last node voltages tried were:

 NODE   VOLTAGE     NODE   VOLTAGE     NODE   VOLTAGE     NODE   VOLTAGE


(   5V)    5.0000  (   HO)    1.6505  (   LO)  -29.6870  (   VO)   -6.0183      

(   VS)    1.7482  (  VCC)   30.0000  (  VEE)  -30.0000  ( VSIN)     .0266      

(N23431)    4.0653 (N24414)    3.8243 (N24432)  -28.2460 (N24524)  -18.0000     

(N24604)    0.0000 (N24634)    0.0000 (N24692)    0.0000 (N24720)    0.0000     

(N24776)    4.9977 (N26337)    1.1847 (N26343)    1.1522 (N26555)  -29.0050     

(N26561)  -28.7110 (PWM_IN)    4.0176 (X_M1.4)    3.4093 (X_M1.5)   29.3670     

(X_M1.6)     .5346 (X_M2.4)  -31.1900 (X_M2.5)    3.2818 (X_M2.6)  -28.1950     

(X_U2.7)     .9858 (X_U2.8)  -29.3530 (X_U2.9)  -29.9670 (VTRIANG)    -.1249    

(X_M1.11)   29.3670                   (X_M1.12)   29.3670                       

(X_M1.22)    2.1730                   (X_M1.33)    2.0805                       

(X_M2.11)    3.2823                   (X_M2.12)    3.2823                       

(X_M2.22)  -30.6520                   (X_M2.33)  -31.3470                       

(X_U2.10)     .0328                   (X_U2.11)     .0328                       

(X_U2.21)     .4766                   (X_U2.22)     .3251                       

(X_U1.DIS)    0.0000                  (X_U1.DRVA)    0.0000                     

(X_U1.DRVB)    0.0000                 (X_U1.NO_DT)    0.0000                    

(X_U1.PWMIN)    1.0000                (X_U1.UVLO1)    5.0000                    

(X_U1.UVLO2)    0.0000                (X_U1.INA_OK)    5.0000                   

(X_U1.INB_OK) 2.333E-09               (X_U1.PWMINB)    0.0000                   

(X_U1.UVLO2B)    5.0000               (X_U1.INA_INT)    4.0176                  

(X_U1.INA_OKD)    5.0000              (X_U1.INA_PRE)    5.0000                  

(X_U1.INB_OKD) 2.333E-09              (X_U1.INB_PRE)    0.0000                  

(X_U1.VCCI_INT)    5.0000             (X_U1.DRVA_PASS)    0.0000                

(X_U1.DRVB_PASS)    0.0000            (X_U1.FAULT_INP)    5.0000                

(X_U1.N16668890)    8.5000            (X_U1.N16668898)    8.5000                

(X_U1.N16669068)    0.0000            (X_U1.N16669308)    1.6505                

(X_U1.N16669580)    5.0000            (X_U1.N16669674)    0.0000                

(X_U1.N16669834)    2.7000            (X_U1.N16669842)    2.5000                

(X_U1.N16669858)    5.0000            (X_U1.N16670120)   -1.2562                

(X_U1.N16670154)    2.0000            (X_U1.N16670162)     .0403                

(X_U1.N16670228)    0.0000            (X_U1.N16670408)    0.0000                

(X_U1.N16670672)    1.0000            (X_U1.N16670780)    2.0761                

(X_U1.N16670790)    0.0000            (X_U1.N16670816)    4.9977                

(X_U1.N16670888)    8.5000            (X_U1.N16670896)    8.0000                

(X_U1.N16671044)   12.0000            (X_U1.N16671166)    0.0000                

(X_U1.N16671236)    0.0000            (X_U1.N16671468)-1.914E-06                

(X_U1.N16671552)    2.0004            (X_U1.N16671580)    2.0000                

(X_U1.N16671640)    5.0000            (X_U1.N16671702)    5.0000                

(X_U1.N16671830)    5.1282            (X_U1.N16671850)    0.0000                

(X_U1.N16672106)    1.0000            (X_U1.N16672276)    1.8000                

(X_U1.N16672306)    1.0000            (X_U1.N16672528)     .9991                

(X_U1.N16672594)    0.0000            (X_U1.N16672776)  -18.0000                

(X_U1.N16672784)  -29.6870            (X_U1.N16672968)  -29.7600                

(X_U1.N16673112) 2.333E-09            (X_U1.N16673358)    0.0000                

(X_U1.N16673432)    1.8000            (X_U1.N16673492)    1.8000                

(X_U1.N16673790) 872.4E-06            (X_U1.N16698404)    5.0000                

(X_U1.N16970878)    3.8243            (X_U1.N17051744)    4.8129                

(X_U1.N17051757)    5.0000            (X_U1.N17051771)  -25.1870                

(X_U1.N17088411)    1.6746            (X_U1.N17110019)    5.0000                

(X_U1.N17110021)    5.0000            (X_U1.N17110038)    6.7482                

(X_U1.N17127259)    1.7482            (X_U1.N17153666)    5.0000                

(X_U1.N17167704)  -30.0000            (X_U1.N17167706)    5.0000                

(X_U1.N17196585)    0.0000            (X_U1.N17198437)    5.0000                

(X_U1.N17201974)    5.0000            (X_U1.N17396123) 9.273E-06                

(X_U1.N17407797)    5.0115            (X_U1.N167201110) 1.345E-24               

(X_U1.N167208610)    5.0000           (X_U1.N167216030)    5.0000               

(X_U1.X_U42.YINT)    0.0000           (X_U1.X_U43.YINT)    5.0000               

(X_U1.X_U44.YINT)    5.0000           (X_U1.X_U54.YINT)    5.0000               

(X_U1.X_U61.YINT)    5.0000           (X_U1.X_U62.YINT)    5.0000               

(X_U1.DEAD_THRESH)     .0023          (X_U1.UVLO1_DELAYED)    5.0000            

(X_U1.UVLO2_DELAYED) 10.21E-18        (X_U1.UVLO2B_DELAYED)    5.0000       

Resuming Simulation with the following settings
ITL4 = 1000

Convergence problem in transient analysis at Time =  3.854E-06
         Time step =  2.183E-15, minimum allowable step size =  11.00E-15

  These devices failed to converge:
    X_M1.M2   



  Last node voltages tried were:

 NODE   VOLTAGE     NODE   VOLTAGE     NODE   VOLTAGE     NODE   VOLTAGE


(   5V)    5.0000  (   HO)    1.6415  (   LO)  -29.6870  (   VO)   -6.0183      

(   VS)    1.7392  (  VCC)   30.0000  (  VEE)  -30.0000  ( VSIN)     .0266      

(N23431)    4.0653 (N24414)    3.8153 (N24432)  -28.2460 (N24524)  -18.0000     

(N24604)    0.0000 (N24634)    0.0000 (N24692)    0.0000 (N24720)    0.0000     

(N24776)    4.9977 (N26337)    1.1757 (N26343)    1.1432 (N26555)  -29.0050     

(N26561)  -28.7110 (PWM_IN)    4.0176 (X_M1.4)    3.4056 (X_M1.5)   29.3630     

(X_M1.6)     .5309 (X_M2.4)  -31.1950 (X_M2.5)    3.2773 (X_M2.6)  -28.2000     

(X_U2.7)     .9858 (X_U2.8)  -29.3530 (X_U2.9)  -29.9670 (VTRIANG)    -.1249    

(X_M1.11)   29.3630                   (X_M1.12)   29.3630                       

(X_M1.22)    2.1693                   (X_M1.33)    2.0767                       

(X_M2.11)    3.2778                   (X_M2.12)    3.2778                       

(X_M2.22)  -30.6560                   (X_M2.33)  -31.3520                       

(X_U2.10)     .0328                   (X_U2.11)     .0328                       

(X_U2.21)     .4766                   (X_U2.22)     .3251                       

(X_U1.DIS)    0.0000                  (X_U1.DRVA)    0.0000                     

(X_U1.DRVB)    0.0000                 (X_U1.NO_DT)    0.0000                    

(X_U1.PWMIN)    1.0000                (X_U1.UVLO1)    5.0000                    

(X_U1.UVLO2)    0.0000                (X_U1.INA_OK)    5.0000                   

(X_U1.INB_OK) 2.333E-09               (X_U1.PWMINB)    0.0000                   

(X_U1.UVLO2B)    5.0000               (X_U1.INA_INT)    4.0176                  

(X_U1.INA_OKD)    5.0000              (X_U1.INA_PRE)    5.0000                  

(X_U1.INB_OKD) 2.333E-09              (X_U1.INB_PRE)    0.0000                  

(X_U1.VCCI_INT)    5.0000             (X_U1.DRVA_PASS)    0.0000                

(X_U1.DRVB_PASS)    0.0000            (X_U1.FAULT_INP)    5.0000                

(X_U1.N16668890)    8.5000            (X_U1.N16668898)    8.5000                

(X_U1.N16669068)    0.0000            (X_U1.N16669308)    1.6415                

(X_U1.N16669580)    5.0000            (X_U1.N16669674)    0.0000                

(X_U1.N16669834)    2.7000            (X_U1.N16669842)    2.5000                

(X_U1.N16669858)    5.0000            (X_U1.N16670120)   -1.2562                

(X_U1.N16670154)    2.0000            (X_U1.N16670162)     .0403                

(X_U1.N16670228)    0.0000            (X_U1.N16670408)    0.0000                

(X_U1.N16670672)    1.0000            (X_U1.N16670780)    2.0761                

(X_U1.N16670790)    0.0000            (X_U1.N16670816)    4.9977                

(X_U1.N16670888)    8.5000            (X_U1.N16670896)    8.0000                

(X_U1.N16671044)   12.0000            (X_U1.N16671166)    0.0000                

(X_U1.N16671236)    0.0000            (X_U1.N16671468)-1.914E-06                

(X_U1.N16671552)    2.0004            (X_U1.N16671580)    2.0000                

(X_U1.N16671640)    5.0000            (X_U1.N16671702)    5.0000                

(X_U1.N16671830)    5.1282            (X_U1.N16671850)    0.0000                

(X_U1.N16672106)    1.0000            (X_U1.N16672276)    1.8000                

(X_U1.N16672306)    1.0000            (X_U1.N16672528)     .9991                

(X_U1.N16672594)    0.0000            (X_U1.N16672776)  -18.0000                

(X_U1.N16672784)  -29.6870            (X_U1.N16672968)  -29.7600                

(X_U1.N16673112) 2.333E-09            (X_U1.N16673358)    0.0000                

(X_U1.N16673432)    1.8000            (X_U1.N16673492)    1.8000                

(X_U1.N16673790) 872.4E-06            (X_U1.N16698404)    5.0000                

(X_U1.N16970878)    3.8153            (X_U1.N17051744)    4.8129                

(X_U1.N17051757)    5.0000            (X_U1.N17051771)  -25.1870                

(X_U1.N17088411)    1.6656            (X_U1.N17110019)    5.0000                

(X_U1.N17110021)    5.0000            (X_U1.N17110038)    6.7392                

(X_U1.N17127259)    1.7392            (X_U1.N17153666)    5.0000                

(X_U1.N17167704)  -30.0000            (X_U1.N17167706)    5.0000                

(X_U1.N17196585)    0.0000            (X_U1.N17198437)    5.0000                

(X_U1.N17201974)    5.0000            (X_U1.N17396123) 9.273E-06                

(X_U1.N17407797)    5.0115            (X_U1.N167201110) 1.345E-24               

(X_U1.N167208610)    5.0000           (X_U1.N167216030)    5.0000               

(X_U1.X_U42.YINT)    0.0000           (X_U1.X_U43.YINT)    5.0000               

(X_U1.X_U44.YINT)    5.0000           (X_U1.X_U54.YINT)    5.0000               

(X_U1.X_U61.YINT)    5.0000           (X_U1.X_U62.YINT)    5.0000               

(X_U1.DEAD_THRESH)     .0023          (X_U1.UVLO1_DELAYED)    5.0000            

(X_U1.UVLO2_DELAYED) 10.21E-18        (X_U1.UVLO2B_DELAYED)    5.0000       

Resuming could not converge the circuit, restarting it now

  These supply currents failed to converge:

    I(X_U2.e1)                =    9.184nA  \    7.748nA
    I(X_U1.E_E15)             =    4.033nA  \    8.799nA
    I(X_U2.v1)                =   -9.184nA  \   -7.748nA

  These devices failed to converge:
    X_M1.M2   X_M2.M2   
Restarting Simulation with the following settings
ITL4 = 125
ABSTOL = 1.26e-010


WARNING(ORPSIM-16534): Using high values of ITL4 for Speed Level > 0 may increase total simulation job time.

**** 04/03/20 19:39:29 ****** PSpice 17.2.0 (March 2016) ****** ID# 0 ********

 ** Profile: "SCHEMATIC1-tran"  [ C:\Users\Ema\Desktop\DCE-GRUPO10\REALIMENTADOR\PSpice\realimentador-pspicefiles\schematic1\tran.sim


 ****     INITIAL TRANSIENT SOLUTION       TEMPERATURE =   27.000 DEG C


******************************************************************************



 NODE   VOLTAGE     NODE   VOLTAGE     NODE   VOLTAGE     NODE   VOLTAGE


(   5V)    5.0000  (   HO)-662.0E-06  (   LO)  -30.0000  (   VO)-63.17E-09      

(   VS)-63.17E-09  (  VCC)   30.0000  (  VEE)  -30.0000  ( VSIN)    0.0000      

(N23431)    4.9751 (N24414)    -.0013 (N24432)  -18.0000 (N24524)  -18.0000     

(N24604)    0.0000 (N24634)    0.0000 (N24692)    0.0000 (N24720)    0.0000     

(N24776)    4.9977 (N26337)-662.0E-06 (N26343)-662.0E-06 (N26555)  -30.0000     

(N26561)  -30.0000 (PWM_IN)    4.9739 (X_M1.4)    2.9359 (X_M1.5)   30.0000     

(X_M1.6)-662.0E-06 (X_M2.4)  -27.0630 (X_M2.5)-63.17E-09 (X_M2.6)  -30.0000     

(X_U2.7)    -.3892 (X_U2.8)  -29.3500 (X_U2.9)  -29.9820 (VTRIANG)   -1.5000    

(X_M1.11)   30.0000                   (X_M1.12)   30.0000                       

(X_M1.22)-662.0E-06                   (X_M1.33)-63.17E-09                       

(X_M2.11)-63.17E-09                   (X_M2.12)-63.17E-09                       

(X_M2.22)  -30.0000                   (X_M2.33)  -30.0000                       

(X_U2.10)     .0179                   (X_U2.11)     .0179                       

(X_U2.21)     .4500                   (X_U2.22)   -1.0500                       

(X_U1.DIS)    0.0000                  (X_U1.DRVA)    0.0000                     

(X_U1.DRVB)    0.0000                 (X_U1.NO_DT)    0.0000                    

(X_U1.PWMIN)    1.0000                (X_U1.UVLO1)    5.0000                    

(X_U1.UVLO2)    0.0000                (X_U1.INA_OK)    5.0000                   

(X_U1.INB_OK)    0.0000               (X_U1.PWMINB)    0.0000                   

(X_U1.UVLO2B)    5.0000               (X_U1.INA_INT)    4.9739                  

(X_U1.INA_OKD)    5.0000              (X_U1.INA_PRE)    5.0000                  

(X_U1.INB_OKD)    0.0000              (X_U1.INB_PRE)    0.0000                  

(X_U1.VCCI_INT)    5.0000             (X_U1.DRVA_PASS)    0.0000                

(X_U1.DRVB_PASS)    0.0000            (X_U1.FAULT_INP)    5.0000                

(X_U1.N16668890)    8.5000            (X_U1.N16668898)    8.5000                

(X_U1.N16669068)    0.0000            (X_U1.N16669308)-662.0E-06                

(X_U1.N16669580)    5.0000            (X_U1.N16669674)    0.0000                

(X_U1.N16669834)    2.7000            (X_U1.N16669842)    2.5000                

(X_U1.N16669858)    5.0000            (X_U1.N16670120) 90.87E-06                

(X_U1.N16670154)    2.0000            (X_U1.N16670162)-22.27E-18                

(X_U1.N16670228)    0.0000            (X_U1.N16670408)    0.0000                

(X_U1.N16670672)    1.0000            (X_U1.N16670780)    -.0013                

(X_U1.N16670790)    0.0000            (X_U1.N16670816)    4.9977                

(X_U1.N16670888)    8.5000            (X_U1.N16670896)    8.0000                

(X_U1.N16671044)   12.0000            (X_U1.N16671166)    0.0000                

(X_U1.N16671236)    0.0000            (X_U1.N16671468)    0.0000                

(X_U1.N16671552) 8.020E-15            (X_U1.N16671580)    2.0000                

(X_U1.N16671640)    0.0000            (X_U1.N16671702)    0.0000                

(X_U1.N16671830)    5.0000            (X_U1.N16671850)    0.0000                

(X_U1.N16672106)    1.0000            (X_U1.N16672276)    1.8000                

(X_U1.N16672306)    1.0000            (X_U1.N16672528)    1.0000                

(X_U1.N16672594)    0.0000            (X_U1.N16672776)  -18.0000                

(X_U1.N16672784)  -30.0000            (X_U1.N16672968)  -30.0000                

(X_U1.N16673112)    0.0000            (X_U1.N16673358)    0.0000                

(X_U1.N16673432)    1.8000            (X_U1.N16673492)    1.8000                

(X_U1.N16673790)    0.0000            (X_U1.N16698404)    5.0000                

(X_U1.N16970878)    -.0013            (X_U1.N17051744)    5.0000                

(X_U1.N17051757)    5.0000            (X_U1.N17051771)  -25.0000                

(X_U1.N17088411)-500.0E-06            (X_U1.N17110019)    5.0000                

(X_U1.N17110021)    5.0000            (X_U1.N17110038)    5.0000                

(X_U1.N17127259)-63.18E-09            (X_U1.N17153666)    5.0000                

(X_U1.N17167704)  -30.0000            (X_U1.N17167706)    5.0000                

(X_U1.N17196585)    0.0000            (X_U1.N17198437)    5.0000                

(X_U1.N17201974)    5.0000            (X_U1.N17396123)-15.66E-21                

(X_U1.N17407797)    5.0000            (X_U1.N167201110)-73.22E-21               

(X_U1.N167208610)    5.0000           (X_U1.N167216030)    5.0000               

(X_U1.X_U42.YINT)    0.0000           (X_U1.X_U43.YINT)    5.0000               

(X_U1.X_U44.YINT)    5.0000           (X_U1.X_U54.YINT)    5.0000               

(X_U1.X_U61.YINT)    5.0000           (X_U1.X_U62.YINT)    5.0000               

(X_U1.DEAD_THRESH)     .0023          (X_U1.UVLO1_DELAYED)    5.0000            

(X_U1.UVLO2_DELAYED) 10.77E-18        (X_U1.UVLO2B_DELAYED)    5.0000       




    VOLTAGE SOURCE CURRENTS
    NAME         CURRENT

    V_V2         1.996E-07
    V_V3        -8.566E-03
    V_V5        -4.797E-03
    V_V4        -8.566E-03
    V_V6        -3.043E-11
    V_V1        -1.212E-03
    X_U2.vi1    -3.043E-11
    X_U2.vi2     1.996E-07
    X_U2.v1     -4.958E-12
    X_U1.V_V8   -4.010E-12
    X_U1.V_V1    0.000E+00
    X_U1.V_V10   0.000E+00
    X_U1.V_V11   0.000E+00
    X_U1.V_V6    0.000E+00
    X_U1.V_V12   0.000E+00
    X_U1.V_V13   0.000E+00
    X_U1.V_V2    0.000E+00
    X_U1.V_V14   0.000E+00
    X_U1.V_V9    0.000E+00
    X_U1.V_V7    0.000E+00
    X_U1.V_V3    0.000E+00
    X_U1.V_V5   -4.543E-02
    X_U1.X_H1.VH_H1   2.272E-03

    TOTAL POWER DISSIPATION   6.43E-01  WATTS

Convergence problem in transient analysis at Time =  3.849E-06
         Time step =  6.475E-15, minimum allowable step size =  11.00E-15

  These supply currents failed to converge:

    I(X_U1.E_E15)             =    92.70nA  \    1.948nA
    I(V_V1)                   =  -287.66mA  \  -288.02mA

  These devices failed to converge:
    X_M1.M2   



  Last node voltages tried were:

 NODE   VOLTAGE     NODE   VOLTAGE     NODE   VOLTAGE     NODE   VOLTAGE


(   5V)    5.0000  (   HO)  -21.3870  (   LO)  -29.6600  (   VO)   -6.0069      

(   VS)  -21.2800  (  VCC)   30.0000  (  VEE)  -30.0000  ( VSIN)     .0266      

(N23431)    4.0841 (N24414)  -19.2060 (N24432)  -20.8640 (N24524)  -18.0000     

(N24604)    0.0000 (N24634)    0.0000 (N24692)    0.0000 (N24720)    0.0000     

(N24776)    4.9977 (N26337)  -21.8200 (N26343)  -21.8770 (N26555)  -28.9770     

(N26561)  -28.6460 (PWM_IN)    4.0374 (X_M1.4)   -8.1858 (X_M1.5)   18.8220     

(X_M1.6)  -11.1190 (X_M2.4)  -43.6930 (X_M2.5)   -8.2711 (X_M2.6)  -40.7320     

(X_U2.7)     .9912 (X_U2.8)  -29.3530 (X_U2.9)  -29.9660 (VTRIANG)    -.1195    

(X_M1.11)   18.8220                   (X_M1.12)   18.8220                       

(X_M1.22)   -9.5975                   (X_M1.33)   -9.6078                       

(X_M2.11)   -8.2706                   (X_M2.12)   -8.2706                       

(X_M2.22)  -42.6310                   (X_M2.33)  -43.8920                       

(X_U2.10)     .0335                   (X_U2.11)     .0335                       

(X_U2.21)     .4766                   (X_U2.22)     .3305                       

(X_U1.DIS)    0.0000                  (X_U1.DRVA)    0.0000                     

(X_U1.DRVB)    0.0000                 (X_U1.NO_DT)    0.0000                    

(X_U1.PWMIN)    1.0000                (X_U1.UVLO1)    5.0000                    

(X_U1.UVLO2)    0.0000                (X_U1.INA_OK)    5.0000                   

(X_U1.INB_OK) 2.500E-09               (X_U1.PWMINB)    0.0000                   

(X_U1.UVLO2B)    5.0000               (X_U1.INA_INT)    4.0374                  

(X_U1.INA_OKD)    5.0000              (X_U1.INA_PRE)    5.0000                  

(X_U1.INB_OKD) 2.500E-09              (X_U1.INB_PRE)    0.0000                  

(X_U1.VCCI_INT)    5.0000             (X_U1.DRVA_PASS)    0.0000                

(X_U1.DRVB_PASS)    0.0000            (X_U1.FAULT_INP)    5.0000                

(X_U1.N16668890)    8.5000            (X_U1.N16668898)    8.5000                

(X_U1.N16669068)    0.0000            (X_U1.N16669308)  -21.3870                

(X_U1.N16669580)    5.0000            (X_U1.N16669674)    0.0000                

(X_U1.N16669834)    2.7000            (X_U1.N16669842)    2.5000                

(X_U1.N16669858)    5.0000            (X_U1.N16670120)     .7864                

(X_U1.N16670154)    2.0000            (X_U1.N16670162)     .0690                

(X_U1.N16670228)    0.0000            (X_U1.N16670408)    0.0000                

(X_U1.N16670672)    1.0000            (X_U1.N16670780)    2.0741                

(X_U1.N16670790)    0.0000            (X_U1.N16670816)    4.9977                

(X_U1.N16670888)    8.5000            (X_U1.N16670896)    8.0000                

(X_U1.N16671044)   12.0000            (X_U1.N16671166)    0.0000                

(X_U1.N16671236)    0.0000            (X_U1.N16671468) 468.9E-12                

(X_U1.N16671552)    2.0005            (X_U1.N16671580)    2.0000                

(X_U1.N16671640)    5.0000            (X_U1.N16671702)    5.0000                

(X_U1.N16671830)    5.0311            (X_U1.N16671850)    0.0000                

(X_U1.N16672106)    1.0000            (X_U1.N16672276)    1.8000                

(X_U1.N16672306)    1.0000            (X_U1.N16672528)     .9975                

(X_U1.N16672594)    0.0000            (X_U1.N16672776)  -18.0000                

(X_U1.N16672784)  -29.6600            (X_U1.N16672968)  -29.7390                

(X_U1.N16673112) 2.500E-09            (X_U1.N16673358)    0.0000                

(X_U1.N16673432)    1.8000            (X_U1.N16673492)    1.8000                

(X_U1.N16673790)     .0025            (X_U1.N16698404)    5.0000                

(X_U1.N16970878)  -19.2060            (X_U1.N17051744)    4.7864                

(X_U1.N17051757)    5.0000            (X_U1.N17051771)  -25.2140                

(X_U1.N17088411)  -21.3610            (X_U1.N17110019)    5.0000                

(X_U1.N17110021)    5.0000            (X_U1.N17110038)  -16.2800                

(X_U1.N17127259)  -21.2800            (X_U1.N17153666)    5.0000                

(X_U1.N17167704)  -30.0000            (X_U1.N17167706)    5.0000                

(X_U1.N17196585)    0.0000            (X_U1.N17198437)    5.0000                

(X_U1.N17201974)    5.0000            (X_U1.N17396123)     .0019                

(X_U1.N17407797)    5.0030            (X_U1.N167201110) 1.345E-24               

(X_U1.N167208610)    5.0000           (X_U1.N167216030)    5.0000               

(X_U1.X_U42.YINT)    0.0000           (X_U1.X_U43.YINT)    5.0000               

(X_U1.X_U44.YINT)    5.0000           (X_U1.X_U54.YINT)    5.0000               

(X_U1.X_U61.YINT)    5.0000           (X_U1.X_U62.YINT)    5.0000               

(X_U1.DEAD_THRESH)     .0023          (X_U1.UVLO1_DELAYED)    5.0000            

(X_U1.UVLO2_DELAYED) 10.21E-18        (X_U1.UVLO2B_DELAYED)    5.0000       

Resuming Simulation with the following settings
ITL4 = 1000
ABSTOL = 1.58e-008

Convergence problem in transient analysis at Time =  53.57E-06
         Time step =  9.673E-15, minimum allowable step size =  11.00E-15

  These voltages failed to converge:

    V(N24414)                 =    -10.27V  \    -10.29V
    V(X_U1.N16970878)         =    -10.27V  \    -10.29V

  These supply currents failed to converge:

    I(X_U1.E_E15)             =    22.64nA  \   -41.56nA

  These devices failed to converge:
    X_M1.M2   



  Last node voltages tried were:

 NODE   VOLTAGE     NODE   VOLTAGE     NODE   VOLTAGE     NODE   VOLTAGE


(   5V)    5.0000  (   HO)  -19.9760  (   LO)  -29.5770  (   VO)   -4.7281      

(   VS)  -19.8850  (  VCC)   30.0000  (  VEE)  -30.0000  ( VSIN)     .3633      

(N23431)    3.9914 (N24414)  -10.2740 (N24432)  -20.3650 (N24524)  -18.0000     

(N24604)    0.0000 (N24634)    0.0000 (N24692)    0.0000 (N24720)    0.0000     

(N24776)    4.9977 (N26337)  -20.3950 (N26343)  -20.4290 (N26555)  -28.8900     

(N26561)  -28.4560 (PWM_IN)    3.9399 (X_M1.4)  -12.4760 (X_M1.5)   24.6900     

(X_M1.6)  -15.4990 (X_M2.4)  -33.3120 (X_M2.5)  -17.8400 (X_M2.6)  -29.2600     

(X_U2.7)    1.3309 (X_U2.8)  -29.3530 (X_U2.9)  -29.9660 (VTRIANG)     .2202    

(X_M1.11)   24.6900                   (X_M1.12)   24.6900                       

(X_M1.22)  -14.5810                   (X_M1.33)  -14.3540                       

(X_M2.11)  -17.8390                   (X_M2.12)  -17.8390                       

(X_M2.22)  -30.9410                   (X_M2.33)  -31.8980                       

(X_U2.10)     .0343                   (X_U2.11)     .0343                       

(X_U2.21)     .8133                   (X_U2.22)     .6702                       

(X_U1.DIS)    0.0000                  (X_U1.DRVA)    0.0000                     

(X_U1.DRVB)    0.0000                 (X_U1.NO_DT)    0.0000                    

(X_U1.PWMIN)    1.0000                (X_U1.UVLO1)    5.0000                    

(X_U1.UVLO2)    5.0000                (X_U1.INA_OK)    5.0000                   

(X_U1.INB_OK) 2.500E-09               (X_U1.PWMINB)    0.0000                   

(X_U1.UVLO2B)    5.0000               (X_U1.INA_INT)    3.9399                  

(X_U1.INA_OKD)    5.0000              (X_U1.INA_PRE)    5.0000                  

(X_U1.INB_OKD) 2.500E-09              (X_U1.INB_PRE)    0.0000                  

(X_U1.VCCI_INT)    5.0000             (X_U1.DRVA_PASS)    0.0000                

(X_U1.DRVB_PASS)    0.0000            (X_U1.FAULT_INP)    5.0000                

(X_U1.N16668890)    8.5000            (X_U1.N16668898)    8.0000                

(X_U1.N16669068)    0.0000            (X_U1.N16669308)  -19.9760                

(X_U1.N16669580)    5.0000            (X_U1.N16669674)    0.0000                

(X_U1.N16669834)    2.7000            (X_U1.N16669842)    2.5000                

(X_U1.N16669858)    5.0000            (X_U1.N16670120)     .6374                

(X_U1.N16670154)    2.0000            (X_U1.N16670162)     .1423                

(X_U1.N16670228)    0.0000            (X_U1.N16670408)    0.0000                

(X_U1.N16670672)    1.0000            (X_U1.N16670780)    9.6107                

(X_U1.N16670790)    0.0000            (X_U1.N16670816)    4.9977                

(X_U1.N16670888)    8.5000            (X_U1.N16670896)    8.0000                

(X_U1.N16671044)   12.0000            (X_U1.N16671166)    0.0000                

(X_U1.N16671236)    0.0000            (X_U1.N16671468) 26.97E-09                

(X_U1.N16671552)    2.0005            (X_U1.N16671580)    2.0000                

(X_U1.N16671640)    5.0000            (X_U1.N16671702)    5.0000                

(X_U1.N16671830)    5.0630            (X_U1.N16671850)    0.0000                

(X_U1.N16672106)    1.0000            (X_U1.N16672276)    1.8000                

(X_U1.N16672306)    1.0000            (X_U1.N16672528)     .9957                

(X_U1.N16672594)    0.0000            (X_U1.N16672776)  -18.0000                

(X_U1.N16672784)  -29.5770            (X_U1.N16672968)  -29.6710                

(X_U1.N16673112) 2.500E-09            (X_U1.N16673358)    0.0000                

(X_U1.N16673432)    1.8000            (X_U1.N16673492)    1.8000                

(X_U1.N16673790)     .0044            (X_U1.N16698404)    5.0000                

(X_U1.N16970878)  -10.2740            (X_U1.N17051744)    4.6070                

(X_U1.N17051757)    5.0000            (X_U1.N17051771)  -25.3930                

(X_U1.N17088411)  -19.9530            (X_U1.N17110019)    5.0000                

(X_U1.N17110021)    5.0000            (X_U1.N17110038)  -14.8850                

(X_U1.N17127259)  -19.8850            (X_U1.N17153666)    5.0000                

(X_U1.N17167704)  -30.0000            (X_U1.N17167706)    5.0000                

(X_U1.N17196585)    5.0000            (X_U1.N17198437)    5.0000                

(X_U1.N17201974)    5.0000            (X_U1.N17396123)     .0069                

(X_U1.N17407797)    5.0105            (X_U1.N167201110)    5.0000               

(X_U1.N167208610)    5.0000           (X_U1.N167216030)    5.0000               

(X_U1.X_U42.YINT)    0.0000           (X_U1.X_U43.YINT)    5.0000               

(X_U1.X_U44.YINT)    5.0000           (X_U1.X_U54.YINT)    5.0000               

(X_U1.X_U61.YINT)    5.0000           (X_U1.X_U62.YINT)    5.0000               

(X_U1.DEAD_THRESH)     .0023          (X_U1.UVLO1_DELAYED)    5.0000            

(X_U1.UVLO2_DELAYED)     .9788        (X_U1.UVLO2B_DELAYED)    5.0000       

Resuming Simulation with the following settings
ITL4 = 1000
ABSTOL = 1e-006

Convergence problem in transient analysis at Time =  53.57E-06
         Time step =  2.656E-15, minimum allowable step size =  11.00E-15

  These devices failed to converge:
    X_M1.M2   



  Last node voltages tried were:

 NODE   VOLTAGE     NODE   VOLTAGE     NODE   VOLTAGE     NODE   VOLTAGE


(   5V)    5.0000  (   HO)  -19.9920  (   LO)  -29.5770  (   VO)   -4.7281      

(   VS)  -19.9010  (  VCC)   30.0000  (  VEE)  -30.0000  ( VSIN)     .3633      

(N23431)    3.9914 (N24414)  -10.2900 (N24432)  -20.3630 (N24524)  -18.0000     

(N24604)    0.0000 (N24634)    0.0000 (N24692)    0.0000 (N24720)    0.0000     

(N24776)    4.9977 (N26337)  -20.4110 (N26343)  -20.4450 (N26555)  -28.8900     

(N26561)  -28.4560 (PWM_IN)    3.9399 (X_M1.4)  -12.4820 (X_M1.5)   24.6820     

(X_M1.6)  -15.5050 (X_M2.4)  -33.3210 (X_M2.5)  -17.8480 (X_M2.6)  -29.2690     

(X_U2.7)    1.3309 (X_U2.8)  -29.3530 (X_U2.9)  -29.9660 (VTRIANG)     .2202    

(X_M1.11)   24.6820                   (X_M1.12)   24.6820                       

(X_M1.22)  -14.5880                   (X_M1.33)  -14.3610                       

(X_M2.11)  -17.8480                   (X_M2.12)  -17.8480                       

(X_M2.22)  -30.9500                   (X_M2.33)  -31.9070                       

(X_U2.10)     .0343                   (X_U2.11)     .0343                       

(X_U2.21)     .8133                   (X_U2.22)     .6702                       

(X_U1.DIS)    0.0000                  (X_U1.DRVA)    0.0000                     

(X_U1.DRVB)    0.0000                 (X_U1.NO_DT)    0.0000                    

(X_U1.PWMIN)    1.0000                (X_U1.UVLO1)    5.0000                    

(X_U1.UVLO2)    5.0000                (X_U1.INA_OK)    5.0000                   

(X_U1.INB_OK) 2.500E-09               (X_U1.PWMINB)    0.0000                   

(X_U1.UVLO2B)    5.0000               (X_U1.INA_INT)    3.9399                  

(X_U1.INA_OKD)    5.0000              (X_U1.INA_PRE)    5.0000                  

(X_U1.INB_OKD) 2.500E-09              (X_U1.INB_PRE)    0.0000                  

(X_U1.VCCI_INT)    5.0000             (X_U1.DRVA_PASS)    0.0000                

(X_U1.DRVB_PASS)    0.0000            (X_U1.FAULT_INP)    5.0000                

(X_U1.N16668890)    8.5000            (X_U1.N16668898)    8.0000                

(X_U1.N16669068)    0.0000            (X_U1.N16669308)  -19.9920                

[...]

(X_U1.N17110021)    5.0000            (X_U1.N17110038)   -6.1979                

(X_U1.N17127259)  -11.1980            (X_U1.N17153666)    5.0000                

(X_U1.N17167704)  -30.0000            (X_U1.N17167706)    5.0000                

(X_U1.N17196585)    5.0000            (X_U1.N17198437)    5.0000                

(X_U1.N17201974)    5.0000            (X_U1.N17396123)     .0040                

(X_U1.N17407797)    5.0109            (X_U1.N167201110)    5.0000               

(X_U1.N167208610)    5.0000           (X_U1.N167216030)    5.0000               

(X_U1.X_U42.YINT)    0.0000           (X_U1.X_U43.YINT)    5.0000               

(X_U1.X_U44.YINT)    5.0000           (X_U1.X_U54.YINT)    5.0000               

(X_U1.X_U61.YINT)    5.0000           (X_U1.X_U62.YINT)    5.0000               

(X_U1.DEAD_THRESH)     .0023          (X_U1.UVLO1_DELAYED)    5.0000            

(X_U1.UVLO2_DELAYED)    1.2465        (X_U1.UVLO2B_DELAYED)    5.0000       

Resuming Simulation with the following settings
RELTOL = 0.05

Convergence problem in transient analysis at Time =  58.54E-06
         Time step =  1.882E-15, minimum allowable step size =  11.00E-15

  These devices failed to converge:
    X_M1.M2   



  Last node voltages tried were:

 NODE   VOLTAGE     NODE   VOLTAGE     NODE   VOLTAGE     NODE   VOLTAGE


(   5V)    5.0000  (   HO)  -18.3940  (   LO)  -29.5390  (   VO)   -4.6112      

(   VS)  -18.2960  (  VCC)   30.0000  (  VEE)  -30.0000  ( VSIN)     .3955      

(N23431)    3.9456 (N24414)   -8.4683 (N24432)  -17.4830 (N24524)  -18.0000     

(N24604)    0.0000 (N24634)    0.0000 (N24692)    0.0000 (N24720)    0.0000     

(N24776)    4.9977 (N26337)  -18.8800 (N26343)  -18.9080 (N26555)  -28.8520     

(N26561)  -28.3640 (PWM_IN)    3.8918 (X_M1.4)  -10.3130 (X_M1.5)   24.0810     

(X_M1.6)  -13.2460 (X_M2.4)  -34.1340 (X_M2.5)  -15.1040 (X_M2.6)  -30.4480     

(X_U2.7)    1.3647 (X_U2.8)  -29.3530 (X_U2.9)  -29.9650 (VTRIANG)     .2540    

(X_M1.11)   24.0810                   (X_M1.12)   24.0810                       

(X_M1.22)  -12.5710                   (X_M1.33)  -11.9500                       

(X_M2.11)  -15.1040                   (X_M2.12)  -15.1040                       

(X_M2.22)  -32.0460                   (X_M2.33)  -33.1560                       

(X_U2.10)     .0348                   (X_U2.11)     .0348                       

(X_U2.21)     .8455                   (X_U2.22)     .7040                       

(X_U1.DIS)    0.0000                  (X_U1.DRVA)    0.0000                     

(X_U1.DRVB)    0.0000                 (X_U1.NO_DT)    0.0000                    

(X_U1.PWMIN)    1.0000                (X_U1.UVLO1)    5.0000                    

(X_U1.UVLO2)    5.0000                (X_U1.INA_OK)    5.0000                   

(X_U1.INB_OK) 2.500E-09               (X_U1.PWMINB)    0.0000                   

(X_U1.UVLO2B)    5.0000               (X_U1.INA_INT)    3.8918                  

(X_U1.INA_OKD)    5.0000              (X_U1.INA_PRE)    5.0000                  

(X_U1.INB_OKD) 2.500E-09              (X_U1.INB_PRE)    0.0000                  

(X_U1.VCCI_INT)    5.0000             (X_U1.DRVA_PASS)    0.0000                

(X_U1.DRVB_PASS)    0.0000            (X_U1.FAULT_INP)    5.0000                

(X_U1.N16668890)    8.5000            (X_U1.N16668898)    8.0000                

(X_U1.N16669068)    0.0000            (X_U1.N16669308)  -18.3940                

(X_U1.N16669580)    5.0000            (X_U1.N16669674)    0.0000                

(X_U1.N16669834)    2.7000            (X_U1.N16669842)    2.5000                

(X_U1.N16669858)    5.0000            (X_U1.N16670120)     .4291                

(X_U1.N16670154)    2.0000            (X_U1.N16670162)     .1187                

(X_U1.N16670228)    0.0000            (X_U1.N16670408)    0.0000                

(X_U1.N16670672)    1.0000            (X_U1.N16670780)    9.8272                

(X_U1.N16670790)    0.0000            (X_U1.N16670816)    4.9977                

(X_U1.N16670888)    8.5000            (X_U1.N16670896)    8.0000                

(X_U1.N16671044)   12.0000            (X_U1.N16671166)    0.0000                

(X_U1.N16671236)    0.0000            (X_U1.N16671468) 2.874E-09                

(X_U1.N16671552)    2.0005            (X_U1.N16671580)    2.0000                

(X_U1.N16671640)    5.0000            (X_U1.N16671702)    5.0000                

(X_U1.N16671830)    5.0580            (X_U1.N16671850)    0.0000                

(X_U1.N16672106)    1.0000            (X_U1.N16672276)    1.8000                

(X_U1.N16672306)    1.0000            (X_U1.N16672528)     .9960                

(X_U1.N16672594)    0.0000            (X_U1.N16672776)  -18.0000                

(X_U1.N16672784)  -29.5390            (X_U1.N16672968)  -29.6420                

(X_U1.N16673112) 2.500E-09            (X_U1.N16673358)    0.0000                

(X_U1.N16673432)    1.8000            (X_U1.N16673492)    1.8000                

(X_U1.N16673790)     .0040            (X_U1.N16698404)    5.0000                

(X_U1.N16970878)   -8.4683            (X_U1.N17051744)    4.6137                

(X_U1.N17051757)    5.0000            (X_U1.N17051771)  -25.3860                

(X_U1.N17088411)  -18.3700            (X_U1.N17110019)    5.0000                

(X_U1.N17110021)    5.0000            (X_U1.N17110038)  -13.2960                

(X_U1.N17127259)  -18.2960            (X_U1.N17153666)    5.0000                

(X_U1.N17167704)  -30.0000            (X_U1.N17167706)    5.0000                

(X_U1.N17196585)    5.0000            (X_U1.N17198437)    5.0000                

(X_U1.N17201974)    5.0000            (X_U1.N17396123)     .0038                

(X_U1.N17407797)    5.0104            (X_U1.N167201110)    5.0000               

(X_U1.N167208610)    5.0000           (X_U1.N167216030)    5.0000               

(X_U1.X_U42.YINT)    0.0000           (X_U1.X_U43.YINT)    5.0000               

(X_U1.X_U44.YINT)    5.0000           (X_U1.X_U54.YINT)    5.0000               

(X_U1.X_U61.YINT)    5.0000           (X_U1.X_U62.YINT)    5.0000               

(X_U1.DEAD_THRESH)     .0023          (X_U1.UVLO1_DELAYED)    5.0000            

(X_U1.UVLO2_DELAYED)    1.2465        (X_U1.UVLO2B_DELAYED)    5.0000       

Resuming Simulation with the following settings
ITL4 = 1000

Convergence problem in transient analysis at Time =  58.54E-06
         Time step =  1.882E-15, minimum allowable step size =  11.00E-15

  These devices failed to converge:
    X_M1.M2   



  Last node voltages tried were:

 NODE   VOLTAGE     NODE   VOLTAGE     NODE   VOLTAGE     NODE   VOLTAGE


(   5V)    5.0000  (   HO)  -18.3940  (   LO)  -29.5390  (   VO)   -4.6112      

(   VS)  -18.2960  (  VCC)   30.0000  (  VEE)  -30.0000  ( VSIN)     .3955      

(N23431)    3.9456 (N24414)   -8.4683 (N24432)  -17.4830 (N24524)  -18.0000     

(N24604)    0.0000 (N24634)    0.0000 (N24692)    0.0000 (N24720)    0.0000     

(N24776)    4.9977 (N26337)  -18.8800 (N26343)  -18.9080 (N26555)  -28.8520     

(N26561)  -28.3640 (PWM_IN)    3.8918 (X_M1.4)  -10.3130 (X_M1.5)   24.0810     

(X_M1.6)  -13.2460 (X_M2.4)  -34.1340 (X_M2.5)  -15.1040 (X_M2.6)  -30.4480     

(X_U2.7)    1.3647 (X_U2.8)  -29.3530 (X_U2.9)  -29.9650 (VTRIANG)     .2540    

(X_M1.11)   24.0810                   (X_M1.12)   24.0810                       

(X_M1.22)  -12.5710                   (X_M1.33)  -11.9500                       

(X_M2.11)  -15.1040                   (X_M2.12)  -15.1040                       

(X_M2.22)  -32.0460                   (X_M2.33)  -33.1560                       

(X_U2.10)     .0348                   (X_U2.11)     .0348                       

(X_U2.21)     .8455                   (X_U2.22)     .7040                       

(X_U1.DIS)    0.0000                  (X_U1.DRVA)    0.0000                     

(X_U1.DRVB)    0.0000                 (X_U1.NO_DT)    0.0000                    

(X_U1.PWMIN)    1.0000                (X_U1.UVLO1)    5.0000                    

(X_U1.UVLO2)    5.0000                (X_U1.INA_OK)    5.0000                   

(X_U1.INB_OK) 2.500E-09               (X_U1.PWMINB)    0.0000                   

(X_U1.UVLO2B)    5.0000               (X_U1.INA_INT)    3.8918                  

(X_U1.INA_OKD)    5.0000              (X_U1.INA_PRE)    5.0000                  

(X_U1.INB_OKD) 2.500E-09              (X_U1.INB_PRE)    0.0000                  

(X_U1.VCCI_INT)    5.0000             (X_U1.DRVA_PASS)    0.0000                

(X_U1.DRVB_PASS)    0.0000            (X_U1.FAULT_INP)    5.0000                

(X_U1.N16668890)    8.5000            (X_U1.N16668898)    8.0000                

(X_U1.N16669068)    0.0000            (X_U1.N16669308)  -18.3940                

(X_U1.N16669580)    5.0000            (X_U1.N16669674)    0.0000                

(X_U1.N16669834)    2.7000            (X_U1.N16669842)    2.5000                

(X_U1.N16669858)    5.0000            (X_U1.N16670120)     .4291                

(X_U1.N16670154)    2.0000            (X_U1.N16670162)     .1187                

(X_U1.N16670228)    0.0000            (X_U1.N16670408)    0.0000                

(X_U1.N16670672)    1.0000            (X_U1.N16670780)    9.8272                

(X_U1.N16670790)    0.0000            (X_U1.N16670816)    4.9977                

(X_U1.N16670888)    8.5000            (X_U1.N16670896)    8.0000                

(X_U1.N16671044)   12.0000            (X_U1.N16671166)    0.0000                

(X_U1.N16671236)    0.0000            (X_U1.N16671468) 2.874E-09                

(X_U1.N16671552)    2.0005            (X_U1.N16671580)    2.0000                

(X_U1.N16671640)    5.0000            (X_U1.N16671702)    5.0000                

(X_U1.N16671830)    5.0580            (X_U1.N16671850)    0.0000                

(X_U1.N16672106)    1.0000            (X_U1.N16672276)    1.8000                

(X_U1.N16672306)    1.0000            (X_U1.N16672528)     .9960                

(X_U1.N16672594)    0.0000            (X_U1.N16672776)  -18.0000                

(X_U1.N16672784)  -29.5390            (X_U1.N16672968)  -29.6420                

(X_U1.N16673112) 2.500E-09            (X_U1.N16673358)    0.0000                

(X_U1.N16673432)    1.8000            (X_U1.N16673492)    1.8000                

(X_U1.N16673790)     .0040            (X_U1.N16698404)    5.0000                

(X_U1.N16970878)   -8.4683            (X_U1.N17051744)    4.6137                

(X_U1.N17051757)    5.0000            (X_U1.N17051771)  -25.3860                

(X_U1.N17088411)  -18.3700            (X_U1.N17110019)    5.0000                

(X_U1.N17110021)    5.0000            (X_U1.N17110038)  -13.2960                

(X_U1.N17127259)  -18.2960            (X_U1.N17153666)    5.0000                

(X_U1.N17167704)  -30.0000            (X_U1.N17167706)    5.0000                

(X_U1.N17196585)    5.0000            (X_U1.N17198437)    5.0000                

(X_U1.N17201974)    5.0000            (X_U1.N17396123)     .0038                

(X_U1.N17407797)    5.0104            (X_U1.N167201110)    5.0000               

(X_U1.N167208610)    5.0000           (X_U1.N167216030)    5.0000               

(X_U1.X_U42.YINT)    0.0000           (X_U1.X_U43.YINT)    5.0000               

(X_U1.X_U44.YINT)    5.0000           (X_U1.X_U54.YINT)    5.0000               

(X_U1.X_U61.YINT)    5.0000           (X_U1.X_U62.YINT)    5.0000               

(X_U1.DEAD_THRESH)     .0023          (X_U1.UVLO1_DELAYED)    5.0000            

(X_U1.UVLO2_DELAYED)    1.2465        (X_U1.UVLO2B_DELAYED)    5.0000       

Resuming could not converge the circuit, restarting it now

  These devices failed to converge:
    X_M1.M2   
Restarting Simulation with the following settings
RELTOL = 0.0086


**** 04/03/20 19:39:29 ****** PSpice 17.2.0 (March 2016) ****** ID# 0 ********

 ** Profile: "SCHEMATIC1-tran"  [ C:\Users\Ema\Desktop\DCE-GRUPO10\REALIMENTADOR\PSpice\realimentador-pspicefiles\schematic1\tran.sim


 ****     INITIAL TRANSIENT SOLUTION       TEMPERATURE =   27.000 DEG C


******************************************************************************



 NODE   VOLTAGE     NODE   VOLTAGE     NODE   VOLTAGE     NODE   VOLTAGE


(   5V)    5.0000  (   HO)-662.0E-06  (   LO)  -30.0000  (   VO)-63.17E-09      

(   VS)-63.17E-09  (  VCC)   30.0000  (  VEE)  -30.0000  ( VSIN)    0.0000      

(N23431)    4.9751 (N24414)    -.0013 (N24432)  -18.0000 (N24524)  -18.0000     

(N24604)    0.0000 (N24634)    0.0000 (N24692)    0.0000 (N24720)    0.0000     

(N24776)    4.9977 (N26337)-662.0E-06 (N26343)-662.0E-06 (N26555)  -30.0000     

(N26561)  -30.0000 (PWM_IN)    4.9739 (X_M1.4)    2.9358 (X_M1.5)   30.0000     

(X_M1.6)-662.0E-06 (X_M2.4)  -27.0640 (X_M2.5)-63.17E-09 (X_M2.6)  -30.0000     

(X_U2.7)    -.3892 (X_U2.8)  -29.3500 (X_U2.9)  -29.9820 (VTRIANG)   -1.5000    

(X_M1.11)   30.0000                   (X_M1.12)   30.0000                       

(X_M1.22)-662.0E-06                   (X_M1.33)-63.17E-09                       

(X_M2.11)-63.17E-09                   (X_M2.12)-63.17E-09                       

(X_M2.22)  -30.0000                   (X_M2.33)  -30.0000                       

(X_U2.10)     .0179                   (X_U2.11)     .0179                       

(X_U2.21)     .4500                   (X_U2.22)   -1.0500                       

(X_U1.DIS)    0.0000                  (X_U1.DRVA)    0.0000                     

(X_U1.DRVB)    0.0000                 (X_U1.NO_DT)    0.0000                    

(X_U1.PWMIN)    1.0000                (X_U1.UVLO1)    5.0000                    

(X_U1.UVLO2)    0.0000                (X_U1.INA_OK)    5.0000                   

(X_U1.INB_OK)    0.0000               (X_U1.PWMINB)    0.0000                   

(X_U1.UVLO2B)    5.0000               (X_U1.INA_INT)    4.9739                  

(X_U1.INA_OKD)    5.0000              (X_U1.INA_PRE)    5.0000                  

(X_U1.INB_OKD)    0.0000              (X_U1.INB_PRE)    0.0000                  

(X_U1.VCCI_INT)    5.0000             (X_U1.DRVA_PASS)    0.0000                

(X_U1.DRVB_PASS)    0.0000            (X_U1.FAULT_INP)    5.0000                

(X_U1.N16668890)    8.5000            (X_U1.N16668898)    8.5000                

(X_U1.N16669068)    0.0000            (X_U1.N16669308)-662.0E-06                

(X_U1.N16669580)    5.0000            (X_U1.N16669674)    0.0000                

(X_U1.N16669834)    2.7000            (X_U1.N16669842)    2.5000                

(X_U1.N16669858)    5.0000            (X_U1.N16670120) 90.87E-06                

(X_U1.N16670154)    2.0000            (X_U1.N16670162)-22.27E-18                

(X_U1.N16670228)    0.0000            (X_U1.N16670408)    0.0000                

(X_U1.N16670672)    1.0000            (X_U1.N16670780)    -.0013                

(X_U1.N16670790)    0.0000            (X_U1.N16670816)    4.9977                

(X_U1.N16670888)    8.5000            (X_U1.N16670896)    8.0000                

(X_U1.N16671044)   12.0000            (X_U1.N16671166)    0.0000                

(X_U1.N16671236)    0.0000            (X_U1.N16671468)    0.0000                

(X_U1.N16671552) 8.020E-15            (X_U1.N16671580)    2.0000                

(X_U1.N16671640)    0.0000            (X_U1.N16671702)    0.0000                

(X_U1.N16671830)    5.0000            (X_U1.N16671850)    0.0000                

(X_U1.N16672106)    1.0000            (X_U1.N16672276)    1.8000                

(X_U1.N16672306)    1.0000            (X_U1.N16672528)    1.0000                

(X_U1.N16672594)    0.0000            (X_U1.N16672776)  -18.0000                

(X_U1.N16672784)  -30.0000            (X_U1.N16672968)  -30.0000                

(X_U1.N16673112)    0.0000            (X_U1.N16673358)    0.0000                

(X_U1.N16673432)    1.8000            (X_U1.N16673492)    1.8000                

(X_U1.N16673790)    0.0000            (X_U1.N16698404)    5.0000                

(X_U1.N16970878)    -.0013            (X_U1.N17051744)    5.0000                

(X_U1.N17051757)    5.0000            (X_U1.N17051771)  -25.0000                

(X_U1.N17088411)-500.0E-06            (X_U1.N17110019)    5.0000                

(X_U1.N17110021)    5.0000            (X_U1.N17110038)    5.0000                

(X_U1.N17127259)-63.18E-09            (X_U1.N17153666)    5.0000                

(X_U1.N17167704)  -30.0000            (X_U1.N17167706)    5.0000                

(X_U1.N17196585)    0.0000            (X_U1.N17198437)    5.0000                

(X_U1.N17201974)    5.0000            (X_U1.N17396123)-15.66E-21                

(X_U1.N17407797)    5.0000            (X_U1.N167201110)-73.22E-21               

(X_U1.N167208610)    5.0000           (X_U1.N167216030)    5.0000               

(X_U1.X_U42.YINT)    0.0000           (X_U1.X_U43.YINT)    5.0000               

(X_U1.X_U44.YINT)    5.0000           (X_U1.X_U54.YINT)    5.0000               

(X_U1.X_U61.YINT)    5.0000           (X_U1.X_U62.YINT)    5.0000               

(X_U1.DEAD_THRESH)     .0023          (X_U1.UVLO1_DELAYED)    5.0000            

(X_U1.UVLO2_DELAYED) 10.77E-18        (X_U1.UVLO2B_DELAYED)    5.0000       




    VOLTAGE SOURCE CURRENTS
    NAME         CURRENT

    V_V2         1.996E-07
    V_V3        -8.566E-03
    V_V5        -4.797E-03
    V_V4        -8.566E-03
    V_V6        -3.043E-11
    V_V1        -1.212E-03
    X_U2.vi1    -3.043E-11
    X_U2.vi2     1.996E-07
    X_U2.v1     -4.958E-12
    X_U1.V_V8   -4.010E-12
    X_U1.V_V1    0.000E+00
    X_U1.V_V10   0.000E+00
    X_U1.V_V11   0.000E+00
    X_U1.V_V6    0.000E+00
    X_U1.V_V12   0.000E+00
    X_U1.V_V13   0.000E+00
    X_U1.V_V2    0.000E+00
    X_U1.V_V14   0.000E+00
    X_U1.V_V9    0.000E+00
    X_U1.V_V7    0.000E+00
    X_U1.V_V3    0.000E+00
    X_U1.V_V5   -4.543E-02
    X_U1.X_H1.VH_H1   2.272E-03

    TOTAL POWER DISSIPATION   6.43E-01  WATTS


**** 04/03/20 19:39:29 ****** PSpice 17.2.0 (March 2016) ****** ID# 0 ********

 ** Profile: "SCHEMATIC1-tran"  [ C:\Users\Ema\Desktop\DCE-GRUPO10\REALIMENTADOR\PSpice\realimentador-pspicefiles\schematic1\tran.sim


 ****     FOURIER ANALYSIS                 TEMPERATURE =   27.000 DEG C


******************************************************************************



FOURIER COMPONENTS OF TRANSIENT RESPONSE V(VO)



 DC COMPONENT =  -1.4756E+00

 HARMONIC   FREQUENCY     FOURIER     NORMALIZED     PHASE     NORMALIZED
    NO         (HZ)      COMPONENT     COMPONENT     (DEG)     PHASE (DEG)

     1    1.0000E+03   2.1900E+01   1.0000E+00  -1.4235E+00   0.0000E+00
     2    2.0000E+03   6.0472E-01   2.7613E-02  -9.4349E+01  -9.1502E+01
     3    3.0000E+03   4.8415E-02   2.2107E-03  -1.5604E+02  -1.5177E+02
     4    4.0000E+03   1.1203E-01   5.1157E-03  -9.4389E+01  -8.8695E+01
     5    5.0000E+03   1.3162E-02   6.0099E-04  -1.1314E+02  -1.0603E+02
     6    6.0000E+03   7.5443E-02   3.4449E-03  -8.2553E+01  -7.4011E+01
     7    7.0000E+03   5.5072E-02   2.5147E-03   9.4047E+00   1.9369E+01
     8    8.0000E+03   3.5356E-02   1.6144E-03  -1.5640E+02  -1.4501E+02
     9    9.0000E+03   6.8369E-02   3.1219E-03  -1.8600E+01  -5.7886E+00


     TOTAL HARMONIC DISTORTION =   2.8713E+00 PERCENT


          JOB CONCLUDED
 AutoConverge Simulator Options
 ITL1 = 150
 ITL2 = 20
 ITL4 = 1000
 RELTOL = 0.00859871
 ABSTOL = 1e-006
 VNTOL = 1e-006
 PIVTOL = 1e-013

**** 04/03/20 19:39:29 ****** PSpice 17.2.0 (March 2016) ****** ID# 0 ********

 ** Profile: "SCHEMATIC1-tran"  [ C:\Users\Ema\Desktop\DCE-GRUPO10\REALIMENTADOR\PSpice\realimentador-pspicefiles\schematic1\tran.sim


 ****     JOB STATISTICS SUMMARY


******************************************************************************



  Total job time (using Solver 1)   =      919.55
