
**** 04/05/20 17:20:33 ****** PSpice 17.2.0 (March 2016) ****** ID# 0 ********

 ** Profile: "SCHEMATIC1-tran"  [ C:\Users\emanu\Desktop\DCE-GRUPO10\REALIMENTADOR\PSpice\realimentador-pspicefiles\schematic1\tran.s


 ****     CIRCUIT DESCRIPTION


******************************************************************************




** Creating circuit file "tran.cir" 
** WARNING: THIS AUTOMATICALLY GENERATED FILE MAY BE OVERWRITTEN BY SUBSEQUENT SIMULATIONS

*Libraries: 
* Profile Libraries :
* Local Libraries :
.LIB "../../../lib/ucc20520_pspice_trans/ucc20520_trans.lib" 
* From [PSPICE NETLIST] section of D:\Cadence\SPB_Data\cdssetup\OrCAD_PSpice\17.2.0\PSpice.ini file:
.lib "nom.lib" 

*Analysis directives: 
.TRAN  0 11m 1m 
.FOUR 1E3 9 V([VO]) 
.OPTIONS ADVCONV
.OPTIONS SOLVER= 1
.OPTIONS METHOD= Default
.OPTIONS THREADS= 8
.AUTOCONVERGE ITL1=1000 ITL2=1000 ITL4=1000 RELTOL=0.05 ABSTOL=1.0E-6 VNTOL=.001 PIVTOL=1.0E-10 
.PROBE64 V(alias(*)) I(alias(*)) W(alias(*)) D(alias(*)) NOISE(alias(*)) 
.INC "..\SCHEMATIC1.net" 



**** INCLUDING SCHEMATIC1.net ****
* source REALIMENTADOR
V_V3         VCC 0 30Vdc
V_V5         5V 0 5Vdc
V_V4         0 VEE 30Vdc
V_V6         N32277 0  
+SIN 0 1.1 1k 0 0 0
V_V7         0 -5V 5Vdc
V_V8         15V 0 15Vdc
V_V9         0 -15V 15Vdc
R_R14         N32061 VS  19k TC=0,0 
R_R15         0 N32061  1k TC=0,0 
R_R16         N32277 N32249  1k TC=0,0 
R_R17         0 N32249  82k TC=0,0 
R_R18         N36230 N36112  1k TC=0,0 
R_R19         N36230 VERROR  82k TC=0,0 
V_V2         VTRIANG 0  
+PULSE -1.5 1.5 0 2.499u 2.499u 1n 5u
R_R21         PWM_IN N37031  51 TC=0,0 
C_C13         0 PWM_IN  33p  TC=0,0 
R_R20         N37031 5V  1k TC=0,0 
X_U7         VERROR VTRIANG 15V -15V N37031 0 LM311 
C_C6         VS N40177  100n  TC=0,0 
C_C3         VEE N40287  10u  TC=0,0 
R_R2         N40287 N40195  10 TC=0,0 
R_R8         N40377 0  1 TC=0,0 
R_R11         0 N40401  1 TC=0,0 
C_C4         VEE N40287  220n  TC=0,0 
R_R9         N40455 0  1 TC=0,0 
D_D6         N40195 N40177 D1N4148 
R_R1         0 N40543  2.2k TC=0,0 
C_C1         0 N40543  2.2n  TC=0,0 
R_R10         0 N40487  1 TC=0,0 
X_U1         0 N40543 0 N40401 N40487 N40455 N40377 HO LO PWM_IN 5V 5V N40177
+  N40287 VS VEE UCC20520_TRANS
C_C5         VS N40177  1u  TC=0,0 
V_V1         N40287 VEE 12Vdc
C_C2         VEE N40287  10u  TC=0,0 
C_C8         VEE N41698  1n  TC=0,0 
D_D3         N41468 HO MURS320T3G 
X_M1         VCC N41474 VS PHB27NQ10T/PLP
X_M2         VS N41698 VEE PHB27NQ10T/PLP
R_R4         HO N41474  3.3 TC=0,0 
R_R3         LO N41698  3.3 TC=0,0 
L_L1         VS VO  33u  
C_C7         VS N41474  1n  TC=0,0 
R_R6         N41692 N41698  1.2 TC=0,0 
D_D4         N41692 LO MURS320T3G 
R_R5         N41468 N41474  1.2 TC=0,0 
R_R7         0 VO  8 TC=0,0 
C_C9         0 VO  330n  TC=0,0 
X_U9         N32249 N36230 15V -15V VERROR AD817/AD
X_U11         N32061 N36112 15V -15V N36112 AD817/AD
C_C15         N36230 VERROR  220p  TC=0,0 
C_C16         0 N32249  220p  TC=0,0 

**** RESUMING tran.cir ****
.END

**** 04/05/20 17:20:33 ****** PSpice 17.2.0 (March 2016) ****** ID# 0 ********

 ** Profile: "SCHEMATIC1-tran"  [ C:\Users\emanu\Desktop\DCE-GRUPO10\REALIMENTADOR\PSpice\realimentador-pspicefiles\schematic1\tran.s


 ****     Diode MODEL PARAMETERS


******************************************************************************




               D1N4148         MURS320T3G      X_U7.dx         X_M1.Dbody      
          IS    2.682000E-09   23.789000E-09  800.000000E-18   10.000000E-15 
           N    1.836           1.6119                           .85         
         ISR    1.565000E-09   19.406000E-09                                 
          NR                    3.5766                                       
         IKF     .04417        61.67                            1.000000E+03 
          BV  100             200                             100            
         IBV  100.000000E-06  800.000000E-09                  250.000000E-06 
          RS     .5664          8.451400E-03                    8.300000E-03 
          TT   11.540000E-09   35.000000E-09                   60.000000E-09 
         CJO    4.000000E-12  137.580000E-12                                 
          VJ     .5             1.4981                           .4          
           M     .3333           .49862                                      
          EG                    1.0274                                       
         XTI                    5.000000E-09                                 


               X_M2.Dbody      X_U9.DX         X_U11.DX        X_U1.X_U48.dd   
          IS   10.000000E-15   10.000000E-15   10.000000E-15   10.000000E-15 
           N     .85                                            1.000000E-03 
         IKF    1.000000E+03                                                 
          BV  100                                                            
         IBV  250.000000E-06                                                 
          RS    8.300000E-03                                                 
          TT   60.000000E-09                                                 
          VJ     .4                                                          


               X_U1.X_U40.dd   X_U1.X_U47.dd   X_U1.X_U57.dd   X_U1.X_U55.dd   
          IS   10.000000E-15   10.000000E-15   10.000000E-15   10.000000E-15 
           N    1.000000E-03    1.000000E-03    1.000000E-03    1.000000E-03 


               X_U1.X_U33.dd   X_U1.X_U37.dd   X_U1.X_U38.dd   X_U1.X_U35.dd   
          IS   10.000000E-15   10.000000E-15   10.000000E-15   10.000000E-15 
           N    1.000000E-03    1.000000E-03    1.000000E-03    1.000000E-03 


               X_U1.X_U56.dd   X_U1.X_U59.dd   X_U1.X_U60.dd   X_U1.X_U39.dd   
          IS   10.000000E-15   10.000000E-15   10.000000E-15   10.000000E-15 
           N    1.000000E-03    1.000000E-03    1.000000E-03    1.000000E-03 


**** 04/05/20 17:20:33 ****** PSpice 17.2.0 (March 2016) ****** ID# 0 ********

 ** Profile: "SCHEMATIC1-tran"  [ C:\Users\emanu\Desktop\DCE-GRUPO10\REALIMENTADOR\PSpice\realimentador-pspicefiles\schematic1\tran.s


 ****     BJT MODEL PARAMETERS


******************************************************************************




               X_U7.qin        X_U7.qmi        X_U7.qmo        X_U7.qoc        
               PNP             NPN             NPN             NPN             
       LEVEL    1               1               1               1            
          IS  800.000000E-18  800.000000E-18  800.000000E-18  800.000000E-18 
          BF  500               1.002000E+03    1.000000E+03  206.900000E+03 
          NF    1               1               1               1            
          BR    1               1               1               1            
          NR    1               1               1               1            
         ISS    0               0               0               0            
          RE    0               0               0               0            
          RC    0               0               0               0            
         CJE    0               0               0               0            
         VJE     .75             .75             .75             .75         
         CJC    0               0               1.000000E-15    1.000000E-15 
         VJC     .75             .75             .75             .75         
         MJC     .33             .33             .33             .33         
        XCJC    1               1               1               1            
         CJS    0               0               0               0            
         VJS     .75             .75             .75             .75         
          TF                                                    7.855000E-12 
          TR                                  124.200000E-09   83.830000E-09 
          KF    0               0               0               0            
          AF    1               1               1               1            
          CN    2.2             2.42            2.42            2.42         
           D     .52             .87             .87             .87         


               X_U9.QN         X_U11.QN        
               NPN             NPN             
       LEVEL    1               1            
          IS  100.000000E-18  100.000000E-18 
          BF  151.52          151.52         
          NF    1               1            
          BR    1               1            
          NR    1               1            
         ISS    0               0            
          RE    0               0            
          RC    0               0            
         CJE    0               0            
         VJE     .75             .75         
         CJC    0               0            
         VJC     .75             .75         
         MJC     .33             .33         
        XCJC    1               1            
         CJS    0               0            
         VJS     .75             .75         
          KF    0               0            
          AF    1               1            
          CN    2.42            2.42         
           D     .87             .87         


**** 04/05/20 17:20:33 ****** PSpice 17.2.0 (March 2016) ****** ID# 0 ********

 ** Profile: "SCHEMATIC1-tran"  [ C:\Users\emanu\Desktop\DCE-GRUPO10\REALIMENTADOR\PSpice\realimentador-pspicefiles\schematic1\tran.s


 ****     MOSFET MODEL PARAMETERS


******************************************************************************




               X_M1.MOST1      X_M1.MOST2      X_M2.MOST1      X_M2.MOST2      
               NMOS            NMOS            NMOS            NMOS            
       LEVEL    3               3               3               3            
           L  300.000000E-09  300.000000E-09  300.000000E-09  300.000000E-09 
           W     .1              .1              .1              .1          
         VTO    3.73           -2.7             3.73           -2.7          
          KP   40.800000E-06   40.800000E-06   40.800000E-06   40.800000E-06 
       GAMMA    0               0               0               0            
         PHI     .6              .6              .6              .6          
      LAMBDA    0               0               0               0            
          RD                    1.000000E+03                    1.000000E+03 
          RS                    1.000000E+03                    1.000000E+03 
          IS    0               0               0               0            
          JS    0               0               0               0            
          PB     .8              .8              .8              .8          
        PBSW     .8              .8              .8              .8          
          CJ    0               0               0               0            
        CJSW    0               0               0               0            
        CGSO    0               0               0               0            
        CGDO    0               0               0               0            
        CGBO    0               0               0               0            
         NFS    1.100000E+12                    1.100000E+12                 
         TOX  100.000000E-09  100.000000E-09  100.000000E-09  100.000000E-09 
          XJ  500.000000E-09  500.000000E-09  500.000000E-09  500.000000E-09 
          UO  650             650             650             650            
       UCRIT   10.000000E+03   10.000000E+03   10.000000E+03   10.000000E+03 
       DELTA     .1              .1              .1              .1          
         ETA  100.000000E-06  100.000000E-06  100.000000E-06  100.000000E-06 
       KAPPA     .1              .1              .1              .1          
      DIOMOD    1               1               1               1            
         VFB    0               0               0               0            
        LETA    0               0               0               0            
        WETA    0               0               0               0            
          U0    0               0               0               0            
        TEMP    0               0               0               0            
         VDD    5               5               5               5            
       XPART    0               0               0               0            


               X_U1.X_M13._mod X_U1.X_M15._mod X_U1.X_M14._mod X_U1.X_M12._mod 
               NMOS            NMOS            NMOS            NMOS            
       LEVEL    1               1               1               1            
           L   10.000000E-09   10.000000E-09   10.000000E-09   10.000000E-09 
           W    2.4             2.4              .285            .285        
         VTO    0               0               0               0            
          KP    2.000000E-09    2.000000E-09    2.000000E-09    2.000000E-09 
       GAMMA    0               0               0               0            
         PHI     .6              .6              .6              .6          
      LAMBDA    0               0               0               0            
          IS   10.000000E-15   10.000000E-15   10.000000E-15   10.000000E-15 
          JS    0               0               0               0            
           N    2.5             2.5             2.5             2.5          
          PB     .8              .8              .8              .8          
        PBSW     .8              .8              .8              .8          
          CJ    0               0               0               0            
        CJSW    0               0               0               0            
        CGSO    0               0               0               0            
        CGDO    0               0               0               0            
        CGBO    0               0               0               0            
         TOX    0               0               0               0            
          XJ    0               0               0               0            
       UCRIT   10.000000E+03   10.000000E+03   10.000000E+03   10.000000E+03 
      DIOMOD    1               1               1               1            
         VFB    0               0               0               0            
        LETA    0               0               0               0            
        WETA    0               0               0               0            
          U0    0               0               0               0            
        TEMP    0               0               0               0            
         VDD    5               5               5               5            
       XPART    0               0               0               0            


**** 04/05/20 17:20:33 ****** PSpice 17.2.0 (March 2016) ****** ID# 0 ********

 ** Profile: "SCHEMATIC1-tran"  [ C:\Users\emanu\Desktop\DCE-GRUPO10\REALIMENTADOR\PSpice\realimentador-pspicefiles\schematic1\tran.s


 ****     Resistor MODEL PARAMETERS


******************************************************************************




               X_M1.Rtemp      X_M2.Rtemp      
           R    1               1            
         TC1    6.810000E-03    6.810000E-03 
         TC2   28.600000E-06   28.600000E-06 


**** 04/05/20 17:20:33 ****** PSpice 17.2.0 (March 2016) ****** ID# 0 ********

 ** Profile: "SCHEMATIC1-tran"  [ C:\Users\emanu\Desktop\DCE-GRUPO10\REALIMENTADOR\PSpice\realimentador-pspicefiles\schematic1\tran.s


 ****     Voltage Controlled Switch MODEL PARAMETERS


******************************************************************************




               X_U1.X_S1._S1   X_U1.X_S6._S6   X_U1.X_S3._S3   X_U1.X_S4._S4   
         RON     .01            5.000000E-03   25               5.000000E-03 
        ROFF    1.000000E+09    1.000000E+06    1.000000E+06    1.000000E+06 
         VON    4               4.5             4.5             4.5          
        VOFF    1                .5              .5              .5          


               X_U1.X_S5._S5   X_U1.X_S2._S2   
         RON   25                .01         
        ROFF    1.000000E+06    1.000000E+09 
         VON    4.5             4            
        VOFF     .5             1            


**** 04/05/20 17:20:33 ****** PSpice 17.2.0 (March 2016) ****** ID# 0 ********

 ** Profile: "SCHEMATIC1-tran"  [ C:\Users\emanu\Desktop\DCE-GRUPO10\REALIMENTADOR\PSpice\realimentador-pspicefiles\schematic1\tran.s


 ****     INITIAL TRANSIENT SOLUTION       TEMPERATURE =   27.000 DEG C


******************************************************************************



 NODE   VOLTAGE     NODE   VOLTAGE     NODE   VOLTAGE     NODE   VOLTAGE


(   5V)    5.0000  (   HO)-663.3E-06  (   LO)  -30.0000  (   VO)-1.369E-06      

(   VS)-1.369E-06  (  -5V)   -5.0000  (  15V)   15.0000  (  VCC)   30.0000      

(  VEE)  -30.0000  ( -15V)  -15.0000  (N32061)    -.0031 (N32249)    -.0032     

(N32277)    0.0000 (N36112)    -.0026 (N36230)    -.0028 (N37031)    4.9751     

(N40177)    -.0013 (N40195)  -18.0000 (N40287)  -18.0000 (N40377)    0.0000     

(N40401)    0.0000 (N40455)    0.0000 (N40487)    0.0000 (N40543)    4.9977     

(N41468)-663.3E-06 (N41474)-663.3E-06 (N41692)  -30.0000 (N41698)  -30.0000     

(PWM_IN)    4.9739 (VERROR)     .2527 (X_M1.4)    2.9359 (X_M1.5)   30.0000     

(X_M1.6)-663.3E-06 (X_M2.4)  -27.0630 (X_M2.5)-1.369E-06 (X_M2.6)  -30.0000     

(X_U7.7)    -.3892 (X_U7.8)  -14.3500 (X_U7.9)  -14.9820 (X_U9.3)    -.0027     

(X_U9.4)   14.4100 (X_U9.5)   14.4100 (X_U9.6)    -.7589 (X_U9.7)    -.7588     

(X_U9.8)   -1.3274 (X_U9.9)     .2527 (VTRIANG)   -1.5000                       

(X_M1.11)   30.0000                   (X_M1.12)   30.0000                       

(X_M1.22)-663.3E-06                   (X_M1.33)-1.369E-06                       

(X_M2.11)-1.369E-06                   (X_M2.12)-1.369E-06                       

(X_M2.22)  -30.0000                   (X_M2.33)  -30.0000                       

(X_U11.3)    -.0026                   (X_U11.4)   14.4100                       

(X_U11.5)   14.4100                   (X_U11.6)    -.7587                       

(X_U11.7)    -.7587                   (X_U11.8)   -1.3272                       

(X_U11.9)    -.0026                   (X_U7.10)     .0179                       

(X_U7.11)     .0179                   (X_U7.21)     .7027                       

(X_U7.22)   -1.0500                   (X_U9.10)   13.1700                       

(X_U9.11)  -13.1700                   (X_U9.14)    -.0030                       

(X_U9.15)-3.002E-09                   (X_U9.31)     .2527                       

(X_U9.32) 252.7E+03                   (X_U9.33)     .2527                       

(X_U9.34) 252.7E+03                   (X_U9.35)     .2527                       

(X_U9.36)     .2527                   (X_U9.40)     .2527                       

(X_U9.41)     .2127                   (X_U9.42)     .2927                       

(X_U9.45)     .2527                   (X_U9.60)    -.4879                       

(X_U9.61)    0.0000                   (X_U9.62)    0.0000                       

(X_U9.98)    0.0000                   (X_U1.DIS)    0.0000                      

(X_U11.10)   13.1700                  (X_U11.11)  -13.1700                      

(X_U11.14)    -.0029                  (X_U11.15)-2.852E-09                      

(X_U11.31)    -.0026                  (X_U11.32)-2574.3000                      

(X_U11.33)    -.0026                  (X_U11.34)-2574.3000                      

(X_U11.35)    -.0026                  (X_U11.36)    -.0026                      

(X_U11.40)    -.0026                  (X_U11.41)    -.0426                      

(X_U11.42)     .0374                  (X_U11.45)    -.0026                      

(X_U11.60)    -.4907                  (X_U11.61)    0.0000                      

(X_U11.62)    0.0000                  (X_U11.98)    0.0000                      

(X_U1.DRVA)    0.0000                 (X_U1.DRVB)    0.0000                     

(X_U1.NO_DT)    0.0000                (X_U1.PWMIN)    1.0000                    

(X_U1.UVLO1)    5.0000                (X_U1.UVLO2)    0.0000                    

(X_U1.INA_OK)    5.0000               (X_U1.INB_OK)    0.0000                   

(X_U1.PWMINB)    0.0000               (X_U1.UVLO2B)    5.0000                   

(X_U1.INA_INT)    4.9739              (X_U1.INA_OKD)    5.0000                  

(X_U1.INA_PRE)    5.0000              (X_U1.INB_OKD)    0.0000                  

(X_U1.INB_PRE)    0.0000              (X_U1.VCCI_INT)    5.0000                 

(X_U1.DRVA_PASS)    0.0000            (X_U1.DRVB_PASS)    0.0000                

(X_U1.FAULT_INP)    5.0000            (X_U1.N16668890)    8.5000                

(X_U1.N16668898)    8.5000            (X_U1.N16669068)    0.0000                

(X_U1.N16669308)-663.3E-06            (X_U1.N16669580)    5.0000                

(X_U1.N16669674)    0.0000            (X_U1.N16669834)    2.7000                

(X_U1.N16669842)    2.5000            (X_U1.N16669858)    5.0000                

(X_U1.N16670120) 90.87E-06            (X_U1.N16670154)    2.0000                

(X_U1.N16670162)-22.27E-18            (X_U1.N16670228)    0.0000                

(X_U1.N16670408)    0.0000            (X_U1.N16670672)    1.0000                

(X_U1.N16670780)    -.0013            (X_U1.N16670790)    0.0000                

(X_U1.N16670816)    4.9977            (X_U1.N16670888)    8.5000                

(X_U1.N16670896)    8.0000            (X_U1.N16671044)   12.0000                

(X_U1.N16671166)    0.0000            (X_U1.N16671236)    0.0000                

(X_U1.N16671468)    0.0000            (X_U1.N16671552) 8.020E-15                

(X_U1.N16671580)    2.0000            (X_U1.N16671640)    0.0000                

(X_U1.N16671702)    0.0000            (X_U1.N16671830)    5.0000                

(X_U1.N16671850)    0.0000            (X_U1.N16672106)    1.0000                

(X_U1.N16672276)    1.8000            (X_U1.N16672306)    1.0000                

(X_U1.N16672528)    1.0000            (X_U1.N16672594)    0.0000                

(X_U1.N16672776)  -18.0000            (X_U1.N16672784)  -30.0000                

(X_U1.N16672968)  -30.0000            (X_U1.N16673112)    0.0000                

(X_U1.N16673358)    0.0000            (X_U1.N16673432)    1.8000                

(X_U1.N16673492)    1.8000            (X_U1.N16673790)    0.0000                

(X_U1.N16698404)    5.0000            (X_U1.N16970878)    -.0013                

(X_U1.N17051744)    5.0000            (X_U1.N17051757)    5.0000                

(X_U1.N17051771)  -25.0000            (X_U1.N17088411)-501.3E-06                

(X_U1.N17110019)    5.0000            (X_U1.N17110021)    5.0000                

(X_U1.N17110038)    5.0000            (X_U1.N17127259)-1.369E-06                

(X_U1.N17153666)    5.0000            (X_U1.N17167704)  -30.0000                

(X_U1.N17167706)    5.0000            (X_U1.N17196585)    0.0000                

(X_U1.N17198437)    5.0000            (X_U1.N17201974)    5.0000                

(X_U1.N17396123)-15.66E-21            (X_U1.N17407797)    5.0000                

(X_U1.N167201110)-73.22E-21           (X_U1.N167208610)    5.0000               

(X_U1.N167216030)    5.0000           (X_U1.X_U42.YINT)    0.0000               

(X_U1.X_U43.YINT)    5.0000           (X_U1.X_U44.YINT)    5.0000               

(X_U1.X_U54.YINT)    5.0000           (X_U1.X_U61.YINT)    5.0000               

(X_U1.X_U62.YINT)    5.0000           (X_U1.DEAD_THRESH)     .0023              

(X_U1.UVLO1_DELAYED)    5.0000        (X_U1.UVLO2_DELAYED) 10.77E-18            

(X_U1.UVLO2B_DELAYED)    5.0000       




    VOLTAGE SOURCE CURRENTS
    NAME         CURRENT

    V_V3         1.281E-09
    V_V5        -4.797E-03
    V_V4        -8.008E-09
    V_V6        -3.227E-06
    V_V7         0.000E+00
    V_V8        -1.833E-02
    V_V9        -1.833E-02
    V_V2         1.996E-07
    V_V1        -1.212E-03
    X_U7.vi1    -1.569E-11
    X_U7.vi2     1.996E-07
    X_U7.v1     -4.958E-12
    X_U1.V_V8   -4.010E-12
    X_U1.V_V1    0.000E+00
    X_U1.V_V10   0.000E+00
    X_U1.V_V11   0.000E+00
    X_U1.V_V6    0.000E+00
    X_U1.V_V12   0.000E+00
    X_U1.V_V13   0.000E+00
    X_U1.V_V2    0.000E+00
    X_U1.V_V14   0.000E+00
    X_U1.V_V9    0.000E+00
    X_U1.V_V7    0.000E+00
    X_U1.V_V3    0.000E+00
    X_U1.V_V5   -4.543E-02
    X_U9.V1      1.293E-11
    X_U9.V2      1.343E-11
    X_U9.V7     -4.979E-13
    X_U9.V8      1.558E-06
    X_U9.V5     -4.784E-14
    X_U9.V6     -4.790E-14
    X_U11.V1     1.318E-11
    X_U11.V2     1.318E-11
    X_U11.V7    -5.007E-13
    X_U11.V8     1.733E-06
    X_U11.V5    -4.782E-14
    X_U11.V6    -4.790E-14
    X_U1.X_H1.VH_H1   2.272E-03

    TOTAL POWER DISSIPATION   6.79E-01  WATTS

Time step =  3.920E-15 is too small in Transient Analysis at
Time =  1.602E-06.  Minimum allowable step size =  11.00E-15.
         The device which is changing too fast is C_C8.



  Last node voltages tried were:

 NODE   VOLTAGE     NODE   VOLTAGE     NODE   VOLTAGE     NODE   VOLTAGE


(   5V)    5.0000  (   HO)-663.4E-06  (   LO)  -30.0000  (   VO)-1.369E-06      

(   VS)-1.378E-06  (  -5V)   -5.0000  (  15V)   15.0000  (  VCC)   30.0000      

(  VEE)  -30.0000  ( -15V)  -15.0000  (N32061)    -.0031 (N32249)     .0062     

(N32277)     .0111 (N36112)    -.0026 (N36230)     .0065 (N37031)     .1233     

(N40177)    -.0013 (N40195)  -18.0000 (N40287)  -18.0000 (N40377)    0.0000     

(N40401)    0.0000 (N40455)    0.0000 (N40487)    0.0000 (N40543)    4.9977     

(N41468)-663.4E-06 (N41474)-663.4E-06 (N41692)  -30.0000 (N41698)  -30.0000     

(PWM_IN)     .1239 (VERROR)     .2910 (X_M1.4)    2.9356 (X_M1.5)   30.0000     

(X_M1.6)-944.2E-06 (X_M2.4)  -27.0630 (X_M2.5) 53.76E-06 (X_M2.6)  -30.0000     

(X_U7.7)    1.4017 (X_U7.8)  -14.4710 (X_U7.9)  -14.2380 (X_U9.3)     .0067     

(X_U9.4)   14.4100 (X_U9.5)   14.4100 (X_U9.6)    -.7496 (X_U9.7)    -.7494     

(X_U9.8)   -1.3180 (X_U9.9)     .2911 (VTRIANG)     .4230                       

(X_M1.11)   30.0000                   (X_M1.12)   30.0000                       

(X_M1.22)-944.2E-06                   (X_M1.33)-282.2E-06                       

(X_M2.11) 53.76E-06                   (X_M2.12) 53.76E-06                       

(X_M2.22)  -30.0000                   (X_M2.33)  -30.0000                       

(X_U11.3)    -.0026                   (X_U11.4)   14.4100                       

(X_U11.5)   14.4100                   (X_U11.6)    -.7587                       

(X_U11.7)    -.7587                   (X_U11.8)   -1.3272                       

(X_U11.9)    -.0026                   (X_U7.10)     .7622                       

(X_U7.11)     .7622                   (X_U7.21)     .7410                       

(X_U7.22)     .8730                   (X_U9.10)   13.1700                       

(X_U9.11)  -13.1700                   (X_U9.14)     .0064                       

(X_U9.15) 347.2E-09                   (X_U9.31)     .2910                       

(X_U9.32) 291.0E+03                   (X_U9.33)     .2911                       

(X_U9.34) 291.1E+03                   (X_U9.35)     .2912                       

(X_U9.36)     .2912                   (X_U9.40)     .2911                       

(X_U9.41)     .2511                   (X_U9.42)     .3311                       

(X_U9.45)     .2910                   (X_U9.60)    -.5232                       

(X_U9.61)    0.0000                   (X_U9.62)    0.0000                       

(X_U9.98)    0.0000                   (X_U1.DIS)    0.0000                      

(X_U11.10)   13.1700                  (X_U11.11)  -13.1700                      

(X_U11.14)    -.0029                  (X_U11.15)-3.276E-09                      

(X_U11.31)    -.0026                  (X_U11.32)-2648.2000                      

(X_U11.33)    -.0026                  (X_U11.34)-2648.4000                      

(X_U11.35)    -.0026                  (X_U11.36)    -.0026                      

(X_U11.40)    -.0026                  (X_U11.41)    -.0426                      

(X_U11.42)     .0374                  (X_U11.45)    -.0026                      

(X_U11.60)     .5040                  (X_U11.61)    0.0000                      

(X_U11.62)    0.0000                  (X_U11.98)    0.0000                      

(X_U1.DRVA)    0.0000                 (X_U1.DRVB)    0.0000                     

(X_U1.NO_DT)    0.0000                (X_U1.PWMIN)    0.0000                    

(X_U1.UVLO1)    5.0000                (X_U1.UVLO2)    0.0000                    

(X_U1.INA_OK) 2.500E-09               (X_U1.INB_OK)    5.0000                   

(X_U1.PWMINB)    1.0000               (X_U1.UVLO2B)    5.0000                   

(X_U1.INA_INT)     .1239              (X_U1.INA_OKD) 2.500E-09                  

(X_U1.INA_PRE)    0.0000              (X_U1.INB_OKD)    5.0000                  

(X_U1.INB_PRE)    5.0000              (X_U1.VCCI_INT)    5.0000                 

(X_U1.DRVA_PASS)    0.0000            (X_U1.DRVB_PASS)    0.0000                

(X_U1.FAULT_INP)    5.0000            (X_U1.N16668890)    8.5000                

(X_U1.N16668898)    8.5000            (X_U1.N16669068)    0.0000                

(X_U1.N16669308)-663.4E-06            (X_U1.N16669580) 2.500E-09                

(X_U1.N16669674)    0.0000            (X_U1.N16669834)    2.7000                

(X_U1.N16669842)    2.5000            (X_U1.N16669858)    5.0000                

(X_U1.N16670120)    2.0005            (X_U1.N16670154)    2.0000                

(X_U1.N16670162)    5.0066            (X_U1.N16670228)    5.0000                

(X_U1.N16670408)    0.0000            (X_U1.N16670672)    1.0000                

(X_U1.N16670780)    -.0013            (X_U1.N16670790)    0.0000                

(X_U1.N16670816)    4.9977            (X_U1.N16670888)    8.5000                

(X_U1.N16670896)    8.0000            (X_U1.N16671044)   12.0000                

(X_U1.N16671166)    0.0000            (X_U1.N16671236)    0.0000                

(X_U1.N16671468)    5.0000            (X_U1.N16671552)    1.0374                

(X_U1.N16671580)    2.0000            (X_U1.N16671640)    5.0000                

(X_U1.N16671702)    2.4998            (X_U1.N16671830)     .0243                

(X_U1.N16671850)    0.0000            (X_U1.N16672106)    1.0000                

(X_U1.N16672276)    1.8000            (X_U1.N16672306)    1.8000                

(X_U1.N16672528)     .0019            (X_U1.N16672594)    0.0000                

(X_U1.N16672776)  -18.0000            (X_U1.N16672784)  -30.0000                

(X_U1.N16672968)  -30.0000            (X_U1.N16673112)    5.0000                

(X_U1.N16673358)    0.0000            (X_U1.N16673432)    1.8000                

(X_U1.N16673492)    1.8000            (X_U1.N16673790)     .9981                

(X_U1.N16698404)    5.0000            (X_U1.N16970878)    -.0013                

(X_U1.N17051744)    5.0000            (X_U1.N17051757)    5.0000                

(X_U1.N17051771)  -25.0000            (X_U1.N17088411)-501.4E-06                

(X_U1.N17110019)    5.0000            (X_U1.N17110021)    5.0000                

(X_U1.N17110038)    5.0000            (X_U1.N17127259)-1.378E-06                

(X_U1.N17153666)    5.0000            (X_U1.N17167704)  -30.0000                

(X_U1.N17167706)    5.0000            (X_U1.N17196585)    0.0000                

(X_U1.N17198437)    5.0000            (X_U1.N17201974)    5.0000                

(X_U1.N17396123)    5.0000            (X_U1.N17407797) 62.76E-06                

(X_U1.N167201110) 1.388E-24           (X_U1.N167208610)    5.0000               

(X_U1.N167216030)    5.0000           (X_U1.X_U42.YINT)    0.0000               

(X_U1.X_U43.YINT)    5.0000           (X_U1.X_U44.YINT)    5.0000               

(X_U1.X_U54.YINT)    5.0000           (X_U1.X_U61.YINT)    5.0000               

(X_U1.X_U62.YINT)    5.0000           (X_U1.DEAD_THRESH)     .0023              

(X_U1.UVLO1_DELAYED)    5.0000        (X_U1.UVLO2_DELAYED) 10.53E-18            

(X_U1.UVLO2B_DELAYED)    5.0000       

Resuming Simulation with the following settings
ITL4 = 1000
RELTOL = 0.0086

Convergence problem in transient analysis at Time =  1.747E-06
         Time step =  6.378E-15, minimum allowable step size =  11.00E-15

  These supply currents failed to converge:

    I(X_U1.E_E15)             =   395.98nA  \   -13.48nA
    I(X_U9.EREF)              =   103.10pA  \   -25.83pA
    I(X_U11.EREF)             =    5.274pA  \   430.61fA
    I(X_U7.vi1)               =   -14.38pA  \   -16.68pA

  These devices failed to converge:
    X_M2.M2   



  Last node voltages tried were:

 NODE   VOLTAGE     NODE   VOLTAGE     NODE   VOLTAGE     NODE   VOLTAGE


(   5V)    5.0000  (   HO)  -18.2950  (   LO)  -29.7560  (   VO)    -.0248      

(   VS)  -18.2720  (  -5V)   -5.0000  (  15V)   15.0000  (  VCC)   30.0000      

(  VEE)  -30.0000  ( -15V)  -15.0000  (N32061)    -.8072 (N32249)     .0071     

(N32277)     .0121 (N36112)   -1.0254 (N36230)    -.0106 (N37031)    4.1194     

(N40177)  -18.1500 (N40195)  -17.2080 (N40287)  -18.0000 (N40377)    0.0000     

(N40401)    0.0000 (N40455)    0.0000 (N40487)    0.0000 (N40543)    4.9977     

(N41468)  -18.4440 (N41474)  -18.4410 (N41692)  -29.0730 (N41698)  -28.8830     

(PWM_IN)    4.0745 (VERROR)    1.1584 (X_M1.4)  -14.9330 (X_M1.5)   30.2090     

(X_M1.6)  -18.8840 (X_M2.4)  -27.4990 (X_M2.5)  -18.0490 (X_M2.6)  -29.0480     

(X_U7.7)    1.7081 (X_U7.8)  -14.3530 (X_U7.9)  -14.9670 (X_U9.3)     .0080     

(X_U9.4)   14.4200 (X_U9.5)   14.4000 (X_U9.6)    -.7663 (X_U9.7)    -.7485     

(X_U9.8)   -1.3259 (X_U9.9)    1.1626 (VTRIANG)     .5973                       

(X_M1.11)   30.2090                   (X_M1.12)   30.2090                       

(X_M1.22)  -18.8310                   (X_M1.33)  -18.3320                       

(X_M2.11)  -18.0480                   (X_M2.12)  -18.0480                       

(X_M2.22)  -29.7000                   (X_M2.33)  -29.6620                       

(X_U11.3)    -.7772                   (X_U11.4)   14.5620                       

(X_U11.5)   14.2570                   (X_U11.6)   -1.7754                       

(X_U11.7)   -1.5382                   (X_U11.8)   -2.2253                       

(X_U11.9)   -1.0793                   (X_U7.10)     .0325                       

(X_U7.11)     .0325                   (X_U7.21)    1.6084                       

(X_U7.22)    1.0473                   (X_U9.10)   13.1700                       

(X_U9.11)  -13.1700                   (X_U9.14)    -.0017                       

(X_U9.15) 39.36E-06                   (X_U9.31)    1.1547                       

(X_U9.32) 1.155E+06                   (X_U9.33)    1.1704                       

(X_U9.34) 1.170E+06                   (X_U9.35)    1.1783                       

(X_U9.36)    1.1719                   (X_U9.40)    1.1665                       

(X_U9.41)    1.1265                   (X_U9.42)    1.2065                       

(X_U9.45)    1.1584                   (X_U9.60)    -.6377                       

(X_U9.61)    0.0000                   (X_U9.62)    0.0000                       

(X_U9.98)    0.0000                   (X_U1.DIS)    0.0000                      

(X_U11.10)   13.1700                  (X_U11.11)  -13.1700                      

(X_U11.14)    -.9163                  (X_U11.15)     .0030                      

(X_U11.31)   -1.1970                  (X_U11.32)-1.197E+06                      

(X_U11.33)    -.9619                  (X_U11.34)-961.9E+03                      

(X_U11.35)    -.8346                  (X_U11.36)    -.9361                      

(X_U11.40)   -1.0325                  (X_U11.41)   -1.0725                      

(X_U11.42)    -.9925                  (X_U11.45)   -1.0253                      

(X_U11.60)     .6343                  (X_U11.61)    0.0000                      

(X_U11.62)    0.0000                  (X_U11.98)    0.0000                      

(X_U1.DRVA)    0.0000                 (X_U1.DRVB)    0.0000                     

(X_U1.NO_DT)    0.0000                (X_U1.PWMIN)    1.0000                    

(X_U1.UVLO1)    5.0000                (X_U1.UVLO2)    0.0000                    

(X_U1.INA_OK)    5.0000               (X_U1.INB_OK) 2.500E-09                   

(X_U1.PWMINB)    0.0000               (X_U1.UVLO2B)    5.0000                   

(X_U1.INA_INT)    4.0745              (X_U1.INA_OKD)    5.0000                  

(X_U1.INA_PRE)    5.0000              (X_U1.INB_OKD) 2.500E-09                  

(X_U1.INB_PRE)    0.0000              (X_U1.VCCI_INT)    5.0000                 

(X_U1.DRVA_PASS)    0.0000            (X_U1.DRVB_PASS)    0.0000                

(X_U1.FAULT_INP)    5.0000            (X_U1.N16668890)    8.5000                

(X_U1.N16668898)    8.5000            (X_U1.N16669068)    0.0000                

(X_U1.N16669308)  -18.2950            (X_U1.N16669580)    5.0000                

(X_U1.N16669674)    0.0000            (X_U1.N16669834)    2.7000                

(X_U1.N16669842)    2.5000            (X_U1.N16669858)    5.0000                

(X_U1.N16670120)   -1.6874            (X_U1.N16670154)    2.0000                

(X_U1.N16670162)     .0420            (X_U1.N16670228)    0.0000                

(X_U1.N16670408)    0.0000            (X_U1.N16670672)    1.0000                

(X_U1.N16670780)     .1222            (X_U1.N16670790)    0.0000                

(X_U1.N16670816)    4.9977            (X_U1.N16670888)    8.5000                

(X_U1.N16670896)    8.0000            (X_U1.N16671044)   12.0000                

(X_U1.N16671166)    0.0000            (X_U1.N16671236)    0.0000                

(X_U1.N16671468)-34.22E-06            (X_U1.N16671552)    2.0004                

(X_U1.N16671580)    2.0000            (X_U1.N16671640)    5.0000                

(X_U1.N16671702)    5.0000            (X_U1.N16671830)    5.1539                

(X_U1.N16671850)    0.0000            (X_U1.N16672106)    1.0000                

(X_U1.N16672276)    1.8000            (X_U1.N16672306)    1.0000                

(X_U1.N16672528)     .9991            (X_U1.N16672594)    0.0000                

(X_U1.N16672776)  -18.0000            (X_U1.N16672784)  -29.7560                

(X_U1.N16672968)  -29.8130            (X_U1.N16673112) 2.500E-09                

(X_U1.N16673358)    0.0000            (X_U1.N16673432)    1.8000                

(X_U1.N16673492)    1.8000            (X_U1.N16673790) 893.5E-06                

(X_U1.N16698404)    5.0000            (X_U1.N16970878)  -18.1500                

(X_U1.N17051744)    4.8189            (X_U1.N17051757)    5.0000                

(X_U1.N17051771)  -25.1810            (X_U1.N17088411)  -18.2890                

(X_U1.N17110019)    5.0000            (X_U1.N17110021)    5.0000                

(X_U1.N17110038)  -13.2720            (X_U1.N17127259)  -18.2720                

(X_U1.N17153666)    5.0000            (X_U1.N17167704)  -30.0000                

(X_U1.N17167706)    5.0000            (X_U1.N17196585)    0.0000                

(X_U1.N17198437)    5.0000            (X_U1.N17201974)    5.0000                

(X_U1.N17396123) 11.90E-06            (X_U1.N17407797)    5.0135                

(X_U1.N167201110) 1.385E-24           (X_U1.N167208610)    5.0000               

(X_U1.N167216030)    5.0000           (X_U1.X_U42.YINT)    0.0000               

(X_U1.X_U43.YINT)    5.0000           (X_U1.X_U44.YINT)    5.0000               

(X_U1.X_U54.YINT)    5.0000           (X_U1.X_U61.YINT)    5.0000               

(X_U1.X_U62.YINT)    5.0000           (X_U1.DEAD_THRESH)     .0023              

(X_U1.UVLO1_DELAYED)    5.0000        (X_U1.UVLO2_DELAYED) 10.51E-18            

(X_U1.UVLO2B_DELAYED)    5.0000       

Resuming Simulation with the following settings
ITL4 = 1000
ABSTOL = 1.26e-010

Convergence problem in transient analysis at Time =  1.747E-06
         Time step =  6.378E-15, minimum allowable step size =  11.00E-15

  These supply currents failed to converge:

    I(X_U1.E_E15)             =    81.89nA  \   336.46nA

  These devices failed to converge:
    X_M2.M2   



  Last node voltages tried were:

 NODE   VOLTAGE     NODE   VOLTAGE     NODE   VOLTAGE     NODE   VOLTAGE


(   5V)    5.0000  (   HO)  -18.2950  (   LO)  -29.7560  (   VO)    -.0248      

(   VS)  -18.2720  (  -5V)   -5.0000  (  15V)   15.0000  (  VCC)   30.0000      

(  VEE)  -30.0000  ( -15V)  -15.0000  (N32061)    -.8072 (N32249)     .0071     

(N32277)     .0121 (N36112)   -1.0253 (N36230)    -.0106 (N37031)    4.1194     

(N40177)  -18.1500 (N40195)  -17.2080 (N40287)  -18.0000 (N40377)    0.0000     

(N40401)    0.0000 (N40455)    0.0000 (N40487)    0.0000 (N40543)    4.9977     

(N41468)  -18.4440 (N41474)  -18.4410 (N41692)  -29.0730 (N41698)  -28.8830     

(PWM_IN)    4.0745 (VERROR)    1.1584 (X_M1.4)  -14.9330 (X_M1.5)   30.2100     

(X_M1.6)  -18.8830 (X_M2.4)  -27.4990 (X_M2.5)  -18.0490 (X_M2.6)  -29.0490     

(X_U7.7)    1.7081 (X_U7.8)  -14.3530 (X_U7.9)  -14.9670 (X_U9.3)     .0080     

(X_U9.4)   14.4200 (X_U9.5)   14.4000 (X_U9.6)    -.7663 (X_U9.7)    -.7485     

(X_U9.8)   -1.3259 (X_U9.9)    1.1626 (VTRIANG)     .5973                       

(X_M1.11)   30.2100                   (X_M1.12)   30.2100                       

(X_M1.22)  -18.8310                   (X_M1.33)  -18.3320                       

(X_M2.11)  -18.0490                   (X_M2.12)  -18.0490                       

(X_M2.22)  -29.7000                   (X_M2.33)  -29.6620                       

(X_U11.3)    -.7772                   (X_U11.4)   14.5620                       

(X_U11.5)   14.2570                   (X_U11.6)   -1.7754                       

(X_U11.7)   -1.5382                   (X_U11.8)   -2.2253                       

(X_U11.9)   -1.0793                   (X_U7.10)     .0325                       

(X_U7.11)     .0325                   (X_U7.21)    1.6084                       

(X_U7.22)    1.0473                   (X_U9.10)   13.1700                       

(X_U9.11)  -13.1700                   (X_U9.14)    -.0017                       

(X_U9.15) 39.36E-06                   (X_U9.31)    1.1547                       

(X_U9.32) 1.155E+06                   (X_U9.33)    1.1704                       

(X_U9.34) 1.170E+06                   (X_U9.35)    1.1783                       

(X_U9.36)    1.1719                   (X_U9.40)    1.1665                       

(X_U9.41)    1.1265                   (X_U9.42)    1.2065                       

(X_U9.45)    1.1584                   (X_U9.60)    -.6377                       

(X_U9.61)    0.0000                   (X_U9.62)    0.0000                       

(X_U9.98)    0.0000                   (X_U1.DIS)    0.0000                      

(X_U11.10)   13.1700                  (X_U11.11)  -13.1700                      

(X_U11.14)    -.9163                  (X_U11.15)     .0030                      

(X_U11.31)   -1.1969                  (X_U11.32)-1.197E+06                      

(X_U11.33)    -.9619                  (X_U11.34)-961.9E+03                      

(X_U11.35)    -.8346                  (X_U11.36)    -.9361                      

(X_U11.40)   -1.0325                  (X_U11.41)   -1.0725                      

(X_U11.42)    -.9925                  (X_U11.45)   -1.0253                      

(X_U11.60)     .6343                  (X_U11.61)    0.0000                      

(X_U11.62)    0.0000                  (X_U11.98)    0.0000                      

(X_U1.DRVA)    0.0000                 (X_U1.DRVB)    0.0000                     

(X_U1.NO_DT)    0.0000                (X_U1.PWMIN)    1.0000                    

(X_U1.UVLO1)    5.0000                (X_U1.UVLO2)    0.0000                    

(X_U1.INA_OK)    5.0000               (X_U1.INB_OK) 2.500E-09                   

(X_U1.PWMINB)    0.0000               (X_U1.UVLO2B)    5.0000                   

(X_U1.INA_INT)    4.0745              (X_U1.INA_OKD)    5.0000                  

(X_U1.INA_PRE)    5.0000              (X_U1.INB_OKD) 2.500E-09                  

(X_U1.INB_PRE)    0.0000              (X_U1.VCCI_INT)    5.0000                 

(X_U1.DRVA_PASS)    0.0000            (X_U1.DRVB_PASS)    0.0000                

(X_U1.FAULT_INP)    5.0000            (X_U1.N16668890)    8.5000                

(X_U1.N16668898)    8.5000            (X_U1.N16669068)    0.0000                

(X_U1.N16669308)  -18.2950            (X_U1.N16669580)    5.0000                

(X_U1.N16669674)    0.0000            (X_U1.N16669834)    2.7000                

(X_U1.N16669842)    2.5000            (X_U1.N16669858)    5.0000                

(X_U1.N16670120)   -1.6874            (X_U1.N16670154)    2.0000                

(X_U1.N16670162)     .0420            (X_U1.N16670228)    0.0000                

(X_U1.N16670408)    0.0000            (X_U1.N16670672)    1.0000                

(X_U1.N16670780)     .1222            (X_U1.N16670790)    0.0000                

(X_U1.N16670816)    4.9977            (X_U1.N16670888)    8.5000                

(X_U1.N16670896)    8.0000            (X_U1.N16671044)   12.0000                

(X_U1.N16671166)    0.0000            (X_U1.N16671236)    0.0000                

(X_U1.N16671468)-34.22E-06            (X_U1.N16671552)    2.0004                

(X_U1.N16671580)    2.0000            (X_U1.N16671640)    5.0000                

(X_U1.N16671702)    5.0000            (X_U1.N16671830)    5.1539                

(X_U1.N16671850)    0.0000            (X_U1.N16672106)    1.0000                

(X_U1.N16672276)    1.8000            (X_U1.N16672306)    1.0000                

(X_U1.N16672528)     .9991            (X_U1.N16672594)    0.0000                

(X_U1.N16672776)  -18.0000            (X_U1.N16672784)  -29.7560                

(X_U1.N16672968)  -29.8130            (X_U1.N16673112) 2.500E-09                

(X_U1.N16673358)    0.0000            (X_U1.N16673432)    1.8000                

(X_U1.N16673492)    1.8000            (X_U1.N16673790) 893.5E-06                

(X_U1.N16698404)    5.0000            (X_U1.N16970878)  -18.1500                

(X_U1.N17051744)    4.8189            (X_U1.N17051757)    5.0000                

(X_U1.N17051771)  -25.1810            (X_U1.N17088411)  -18.2900                

(X_U1.N17110019)    5.0000            (X_U1.N17110021)    5.0000                

(X_U1.N17110038)  -13.2720            (X_U1.N17127259)  -18.2720                

(X_U1.N17153666)    5.0000            (X_U1.N17167704)  -30.0000                

(X_U1.N17167706)    5.0000            (X_U1.N17196585)    0.0000                

(X_U1.N17198437)    5.0000            (X_U1.N17201974)    5.0000                

(X_U1.N17396123) 11.90E-06            (X_U1.N17407797)    5.0135                

(X_U1.N167201110) 1.385E-24           (X_U1.N167208610)    5.0000               

(X_U1.N167216030)    5.0000           (X_U1.X_U42.YINT)    0.0000               

(X_U1.X_U43.YINT)    5.0000           (X_U1.X_U44.YINT)    5.0000               

(X_U1.X_U54.YINT)    5.0000           (X_U1.X_U61.YINT)    5.0000               

(X_U1.X_U62.YINT)    5.0000           (X_U1.DEAD_THRESH)     .0023              

(X_U1.UVLO1_DELAYED)    5.0000        (X_U1.UVLO2_DELAYED) 10.51E-18            

(X_U1.UVLO2B_DELAYED)    5.0000       

Resuming Simulation with the following settings
ITL4 = 125
ABSTOL = 1.58e-008

Convergence problem in transient analysis at Time =  1.747E-06
         Time step =  6.378E-15, minimum allowable step size =  11.00E-15

  These supply currents failed to converge:

    I(X_U1.E_E15)             =    4.275nA  \    81.89nA

  These devices failed to converge:
    X_M2.M2   X_U7.q5   



  Last node voltages tried were:

 NODE   VOLTAGE     NODE   VOLTAGE     NODE   VOLTAGE     NODE   VOLTAGE


(   5V)    5.0000  (   HO)  -18.2950  (   LO)  -29.7560  (   VO)    -.0248      

(   VS)  -18.2720  (  -5V)   -5.0000  (  15V)   15.0000  (  VCC)   30.0000      

(  VEE)  -30.0000  ( -15V)  -15.0000  (N32061)    -.8072 (N32249)     .0071     

(N32277)     .0121 (N36112)   -1.0253 (N36230)    -.0106 (N37031)    4.1194     

(N40177)  -18.1500 (N40195)  -17.2080 (N40287)  -18.0000 (N40377)    0.0000     

(N40401)    0.0000 (N40455)    0.0000 (N40487)    0.0000 (N40543)    4.9977     

(N41468)  -18.4440 (N41474)  -18.4410 (N41692)  -29.0730 (N41698)  -28.8830     

(PWM_IN)    4.0745 (VERROR)    1.1584 (X_M1.4)  -14.9330 (X_M1.5)   30.2090     

(X_M1.6)  -18.8840 (X_M2.4)  -27.4980 (X_M2.5)  -18.0480 (X_M2.6)  -29.0480     

(X_U7.7)    1.7081 (X_U7.8)  -14.3530 (X_U7.9)  -14.9670 (X_U9.3)     .0080     

(X_U9.4)   14.4200 (X_U9.5)   14.4000 (X_U9.6)    -.7663 (X_U9.7)    -.7485     

(X_U9.8)   -1.3259 (X_U9.9)    1.1626 (VTRIANG)     .5973                       

(X_M1.11)   30.2090                   (X_M1.12)   30.2090                       

(X_M1.22)  -18.8310                   (X_M1.33)  -18.3320                       

(X_M2.11)  -18.0480                   (X_M2.12)  -18.0480                       

(X_M2.22)  -29.6990                   (X_M2.33)  -29.6620                       

(X_U11.3)    -.7772                   (X_U11.4)   14.5620                       

(X_U11.5)   14.2570                   (X_U11.6)   -1.7754                       

(X_U11.7)   -1.5382                   (X_U11.8)   -2.2253                       

(X_U11.9)   -1.0793                   (X_U7.10)     .0325                       

(X_U7.11)     .0325                   (X_U7.21)    1.6084                       

(X_U7.22)    1.0473                   (X_U9.10)   13.1700                       

(X_U9.11)  -13.1700                   (X_U9.14)    -.0017                       

(X_U9.15) 39.36E-06                   (X_U9.31)    1.1547                       

(X_U9.32) 1.155E+06                   (X_U9.33)    1.1704                       

(X_U9.34) 1.170E+06                   (X_U9.35)    1.1783                       

(X_U9.36)    1.1719                   (X_U9.40)    1.1665                       

(X_U9.41)    1.1265                   (X_U9.42)    1.2065                       

(X_U9.45)    1.1584                   (X_U9.60)    -.6377                       

(X_U9.61)    0.0000                   (X_U9.62)    0.0000                       

(X_U9.98)    0.0000                   (X_U1.DIS)    0.0000                      

(X_U11.10)   13.1700                  (X_U11.11)  -13.1700                      

(X_U11.14)    -.9163                  (X_U11.15)     .0030                      

(X_U11.31)   -1.1969                  (X_U11.32)-1.197E+06                      

(X_U11.33)    -.9619                  (X_U11.34)-961.9E+03                      

(X_U11.35)    -.8345                  (X_U11.36)    -.9361                      

(X_U11.40)   -1.0325                  (X_U11.41)   -1.0725                      

(X_U11.42)    -.9925                  (X_U11.45)   -1.0253                      

(X_U11.60)     .6343                  (X_U11.61)    0.0000                      

(X_U11.62)    0.0000                  (X_U11.98)    0.0000                      

(X_U1.DRVA)    0.0000                 (X_U1.DRVB)    0.0000                     

(X_U1.NO_DT)    0.0000                (X_U1.PWMIN)    1.0000                    

(X_U1.UVLO1)    5.0000                (X_U1.UVLO2)    0.0000                    

(X_U1.INA_OK)    5.0000               (X_U1.INB_OK) 2.500E-09                   

(X_U1.PWMINB)    0.0000               (X_U1.UVLO2B)    5.0000                   

(X_U1.INA_INT)    4.0745              (X_U1.INA_OKD)    5.0000                  

(X_U1.INA_PRE)    5.0000              (X_U1.INB_OKD) 2.500E-09                  

(X_U1.INB_PRE)    0.0000              (X_U1.VCCI_INT)    5.0000                 

(X_U1.DRVA_PASS)    0.0000            (X_U1.DRVB_PASS)    0.0000                

(X_U1.FAULT_INP)    5.0000            (X_U1.N16668890)    8.5000                

(X_U1.N16668898)    8.5000            (X_U1.N16669068)    0.0000                

(X_U1.N16669308)  -18.2950            (X_U1.N16669580)    5.0000                

(X_U1.N16669674)    0.0000            (X_U1.N16669834)    2.7000                

(X_U1.N16669842)    2.5000            (X_U1.N16669858)    5.0000                

(X_U1.N16670120)   -1.6874            (X_U1.N16670154)    2.0000                

(X_U1.N16670162)     .0420            (X_U1.N16670228)    0.0000                

(X_U1.N16670408)    0.0000            (X_U1.N16670672)    1.0000                

(X_U1.N16670780)     .1222            (X_U1.N16670790)    0.0000                

(X_U1.N16670816)    4.9977            (X_U1.N16670888)    8.5000                

(X_U1.N16670896)    8.0000            (X_U1.N16671044)   12.0000                

(X_U1.N16671166)    0.0000            (X_U1.N16671236)    0.0000                

(X_U1.N16671468)-34.22E-06            (X_U1.N16671552)    2.0004                

(X_U1.N16671580)    2.0000            (X_U1.N16671640)    5.0000                

(X_U1.N16671702)    5.0000            (X_U1.N16671830)    5.1539                

(X_U1.N16671850)    0.0000            (X_U1.N16672106)    1.0000                

(X_U1.N16672276)    1.8000            (X_U1.N16672306)    1.0000                

(X_U1.N16672528)     .9991            (X_U1.N16672594)    0.0000                

(X_U1.N16672776)  -18.0000            (X_U1.N16672784)  -29.7560                

(X_U1.N16672968)  -29.8130            (X_U1.N16673112) 2.500E-09                

(X_U1.N16673358)    0.0000            (X_U1.N16673432)    1.8000                

(X_U1.N16673492)    1.8000            (X_U1.N16673790) 893.5E-06                

(X_U1.N16698404)    5.0000            (X_U1.N16970878)  -18.1500                

(X_U1.N17051744)    4.8189            (X_U1.N17051757)    5.0000                

(X_U1.N17051771)  -25.1810            (X_U1.N17088411)  -18.2890                

(X_U1.N17110019)    5.0000            (X_U1.N17110021)    5.0000                

(X_U1.N17110038)  -13.2720            (X_U1.N17127259)  -18.2720                

(X_U1.N17153666)    5.0000            (X_U1.N17167704)  -30.0000                

(X_U1.N17167706)    5.0000            (X_U1.N17196585)    0.0000                

(X_U1.N17198437)    5.0000            (X_U1.N17201974)    5.0000                

(X_U1.N17396123) 11.90E-06            (X_U1.N17407797)    5.0135                

(X_U1.N167201110) 1.385E-24           (X_U1.N167208610)    5.0000               

(X_U1.N167216030)    5.0000           (X_U1.X_U42.YINT)    0.0000               

(X_U1.X_U43.YINT)    5.0000           (X_U1.X_U44.YINT)    5.0000               

(X_U1.X_U54.YINT)    5.0000           (X_U1.X_U61.YINT)    5.0000               

(X_U1.X_U62.YINT)    5.0000           (X_U1.DEAD_THRESH)     .0023              

(X_U1.UVLO1_DELAYED)    5.0000        (X_U1.UVLO2_DELAYED) 10.51E-18            

(X_U1.UVLO2B_DELAYED)    5.0000       

Resuming Simulation with the following settings
ITL4 = 1000
ABSTOL = 1e-006

Convergence problem in transient analysis at Time =  1.747E-06
         Time step =  6.378E-15, minimum allowable step size =  11.00E-15



  Last node voltages tried were:

 NODE   VOLTAGE     NODE   VOLTAGE     NODE   VOLTAGE     NODE   VOLTAGE


(   5V)    5.0000  (   HO)  -18.2950  (   LO)  -29.7560  (   VO)    -.0248      

(   VS)  -18.2720  (  -5V)   -5.0000  (  15V)   15.0000  (  VCC)   30.0000      

(  VEE)  -30.0000  ( -15V)  -15.0000  (N32061)    -.8072 (N32249)     .0071     

(N32277)     .0121 (N36112)   -1.0253 (N36230)    -.0106 (N37031)    4.1194     

(N40177)  -18.1500 (N40195)  -17.2080 (N40287)  -18.0000 (N40377)    0.0000     

(N40401)    0.0000 (N40455)    0.0000 (N40487)    0.0000 (N40543)    4.9977     

(N41468)  -18.4440 (N41474)  -18.4410 (N41692)  -29.0730 (N41698)  -28.8830     

(PWM_IN)    4.0745 (VERROR)    1.1584 (X_M1.4)  -14.9330 (X_M1.5)   30.2100     

(X_M1.6)  -18.8830 (X_M2.4)  -27.4990 (X_M2.5)  -18.0490 (X_M2.6)  -29.0490     

(X_U7.7)    1.7081 (X_U7.8)  -14.3530 (X_U7.9)  -14.9670 (X_U9.3)     .0080     

(X_U9.4)   14.4200 (X_U9.5)   14.4000 (X_U9.6)    -.7663 (X_U9.7)    -.7485     

(X_U9.8)   -1.3259 (X_U9.9)    1.1626 (VTRIANG)     .5973                       

(X_M1.11)   30.2100                   (X_M1.12)   30.2100                       

(X_M1.22)  -18.8310                   (X_M1.33)  -18.3320                       

(X_M2.11)  -18.0490                   (X_M2.12)  -18.0490                       

(X_M2.22)  -29.7000                   (X_M2.33)  -29.6620                       

(X_U11.3)    -.7772                   (X_U11.4)   14.5620                       

(X_U11.5)   14.2570                   (X_U11.6)   -1.7754                       

(X_U11.7)   -1.5382                   (X_U11.8)   -2.2253                       

(X_U11.9)   -1.0793                   (X_U7.10)     .0325                       

(X_U7.11)     .0325                   (X_U7.21)    1.6084                       

(X_U7.22)    1.0473                   (X_U9.10)   13.1700                       

(X_U9.11)  -13.1700                   (X_U9.14)    -.0017                       

(X_U9.15) 39.36E-06                   (X_U9.31)    1.1547                       

(X_U9.32) 1.155E+06                   (X_U9.33)    1.1704                       

(X_U9.34) 1.170E+06                   (X_U9.35)    1.1783                       

(X_U9.36)    1.1719                   (X_U9.40)    1.1665                       

(X_U9.41)    1.1265                   (X_U9.42)    1.2065                       

(X_U9.45)    1.1584                   (X_U9.60)    -.6377                       

(X_U9.61)    0.0000                   (X_U9.62)    0.0000                       

(X_U9.98)    0.0000                   (X_U1.DIS)    0.0000                      

(X_U11.10)   13.1700                  (X_U11.11)  -13.1700                      

(X_U11.14)    -.9163                  (X_U11.15)     .0030                      

(X_U11.31)   -1.1969                  (X_U11.32)-1.197E+06                      

(X_U11.33)    -.9619                  (X_U11.34)-961.9E+03                      

(X_U11.35)    -.8345                  (X_U11.36)    -.9361                      

(X_U11.40)   -1.0325                  (X_U11.41)   -1.0725                      

(X_U11.42)    -.9925                  (X_U11.45)   -1.0253                      

(X_U11.60)     .6343                  (X_U11.61)    0.0000                      

(X_U11.62)    0.0000                  (X_U11.98)    0.0000                      

(X_U1.DRVA)    0.0000                 (X_U1.DRVB)    0.0000                     

(X_U1.NO_DT)    0.0000                (X_U1.PWMIN)    1.0000                    

(X_U1.UVLO1)    5.0000                (X_U1.UVLO2)    0.0000                    

(X_U1.INA_OK)    5.0000               (X_U1.INB_OK) 2.500E-09                   

(X_U1.PWMINB)    0.0000               (X_U1.UVLO2B)    5.0000                   

(X_U1.INA_INT)    4.0745              (X_U1.INA_OKD)    5.0000                  

(X_U1.INA_PRE)    5.0000              (X_U1.INB_OKD) 2.500E-09                  

(X_U1.INB_PRE)    0.0000              (X_U1.VCCI_INT)    5.0000                 

(X_U1.DRVA_PASS)    0.0000            (X_U1.DRVB_PASS)    0.0000                

(X_U1.FAULT_INP)    5.0000            (X_U1.N16668890)    8.5000                

(X_U1.N16668898)    8.5000            (X_U1.N16669068)    0.0000                

(X_U1.N16669308)  -18.2950            (X_U1.N16669580)    5.0000                

(X_U1.N16669674)    0.0000            (X_U1.N16669834)    2.7000                

(X_U1.N16669842)    2.5000            (X_U1.N16669858)    5.0000                

(X_U1.N16670120)   -1.6874            (X_U1.N16670154)    2.0000                

(X_U1.N16670162)     .0420            (X_U1.N16670228)    0.0000                

(X_U1.N16670408)    0.0000            (X_U1.N16670672)    1.0000                

(X_U1.N16670780)     .1222            (X_U1.N16670790)    0.0000                

(X_U1.N16670816)    4.9977            (X_U1.N16670888)    8.5000                

(X_U1.N16670896)    8.0000            (X_U1.N16671044)   12.0000                

(X_U1.N16671166)    0.0000            (X_U1.N16671236)    0.0000                

(X_U1.N16671468)-34.22E-06            (X_U1.N16671552)    2.0004                

(X_U1.N16671580)    2.0000            (X_U1.N16671640)    5.0000                

(X_U1.N16671702)    5.0000            (X_U1.N16671830)    5.1539                

(X_U1.N16671850)    0.0000            (X_U1.N16672106)    1.0000                

(X_U1.N16672276)    1.8000            (X_U1.N16672306)    1.0000                

(X_U1.N16672528)     .9991            (X_U1.N16672594)    0.0000                

(X_U1.N16672776)  -18.0000            (X_U1.N16672784)  -29.7560                

(X_U1.N16672968)  -29.8130            (X_U1.N16673112) 2.500E-09                

(X_U1.N16673358)    0.0000            (X_U1.N16673432)    1.8000                

(X_U1.N16673492)    1.8000            (X_U1.N16673790) 893.5E-06                

(X_U1.N16698404)    5.0000            (X_U1.N16970878)  -18.1500                

(X_U1.N17051744)    4.8189            (X_U1.N17051757)    5.0000                

(X_U1.N17051771)  -25.1810            (X_U1.N17088411)  -18.2890                

(X_U1.N17110019)    5.0000            (X_U1.N17110021)    5.0000                

(X_U1.N17110038)  -13.2720            (X_U1.N17127259)  -18.2720                

(X_U1.N17153666)    5.0000            (X_U1.N17167704)  -30.0000                

(X_U1.N17167706)    5.0000            (X_U1.N17196585)    0.0000                

(X_U1.N17198437)    5.0000            (X_U1.N17201974)    5.0000                

(X_U1.N17396123) 11.90E-06            (X_U1.N17407797)    5.0135                

(X_U1.N167201110) 1.385E-24           (X_U1.N167208610)    5.0000               

(X_U1.N167216030)    5.0000           (X_U1.X_U42.YINT)    0.0000               

(X_U1.X_U43.YINT)    5.0000           (X_U1.X_U44.YINT)    5.0000               

(X_U1.X_U54.YINT)    5.0000           (X_U1.X_U61.YINT)    5.0000               

(X_U1.X_U62.YINT)    5.0000           (X_U1.DEAD_THRESH)     .0023              

(X_U1.UVLO1_DELAYED)    5.0000        (X_U1.UVLO2_DELAYED) 10.51E-18            

(X_U1.UVLO2B_DELAYED)    5.0000       

Resuming Simulation with the following settings
ITL4 = 125

Convergence problem in transient analysis at Time =  1.210E-03
         Time step =  7.387E-15, minimum allowable step size =  11.00E-15



  Last node voltages tried were:

 NODE   VOLTAGE     NODE   VOLTAGE     NODE   VOLTAGE     NODE   VOLTAGE


(   5V)    5.0000  (   HO)   42.6680  (   LO)  -30.1640  (   VO)   21.2290      

(   VS)   34.7740  (  -5V)   -5.0000  (  15V)   15.0000  (  VCC)   30.0000      

(  VEE)  -30.0000  ( -15V)  -15.0000  (N32061)    1.7531 (N32249)    1.0490     

(N32277)    1.0654 (N36112)     .0330 (N36230)    1.0293 (N37031)    4.9230     

(N40177)   44.2410 (N40195)  -18.0190 (N40287)  -18.0000 (N40377)    0.0000     

(N40401)    0.0000 (N40455)    0.0000 (N40487)    0.0000 (N40543)    4.9977     

(N41468)   40.3400 (N41474)   40.2820 (N41692)  -31.0160 (N41698)  -31.0520     

(PWM_IN)    4.9191 (VERROR)     .8384 (X_M1.4)   30.9930 (X_M1.5)   31.1720     

(X_M1.6)   37.7650 (X_M2.4)  -27.4670 (X_M2.5)   36.1260 (X_M2.6)  -30.6990     

(X_U7.7)    -.3891 (X_U7.8)  -14.3510 (X_U7.9)  -14.9790 (X_U9.3)    1.0506     

(X_U9.4)   14.4220 (X_U9.5)   14.3980 (X_U9.6)     .2737 (X_U9.7)     .2940     

(X_U9.8)    -.2846 (X_U9.9)     .8410 (VTRIANG)   -1.4999                       

(X_M1.11)   31.4300                   (X_M1.12)   31.4300                       

(X_M1.22)   41.0450                   (X_M1.33)   30.9470                       

(X_M2.11)   36.3200                   (X_M2.12)   36.3200                       

(X_M2.22)  -29.5460                   (X_M2.33)  -34.8160                       

(X_U11.3)    1.9175                   (X_U11.4)   14.9530                       

(X_U11.5)   13.8670                   (X_U11.6)     .0065                       

(X_U11.7)    1.1435                   (X_U11.8)     .0065                       

(X_U11.9)    -.0331                   (X_U7.10)     .0211                       

(X_U7.11)     .0211                   (X_U7.21)    1.2884                       

(X_U7.22)   -1.0499                   (X_U9.10)   13.1700                       

(X_U9.11)  -13.1700                   (X_U9.14)    1.0391                       

(X_U9.15) 115.4E-06                   (X_U9.31)     .8310                       

(X_U9.32) 831.0E+03                   (X_U9.33)     .8511                       

(X_U9.34) 851.1E+03                   (X_U9.35)     .8604                       

(X_U9.36)     .8529                   (X_U9.40)     .8464                       

(X_U9.41)     .8064                   (X_U9.42)     .8864                       

(X_U9.45)     .8383                   (X_U9.60)    -.6373                       

(X_U9.61)    0.0000                   (X_U9.62)    0.0000                       

(X_U9.98)    0.0000                   (X_U1.DIS)    0.0000                      

(X_U11.10)   13.1700                  (X_U11.11)  -13.1700                      

(X_U11.14)     .8931                  (X_U11.15)     .0164                      

(X_U11.31)    -.3449                  (X_U11.32)-344.9E+03                      

(X_U11.33)     .2782                  (X_U11.34) 278.2E+03                      

(X_U11.35)     .8581                  (X_U11.36)     .3566                      

(X_U11.40)     .0253                  (X_U11.41)    -.0147                      

(X_U11.42)     .0653                  (X_U11.45)     .0331                      

(X_U11.60)     .6365                  (X_U11.61)    0.0000                      

(X_U11.62)    0.0000                  (X_U11.98)    0.0000                      

(X_U1.DRVA)    5.0000                 (X_U1.DRVB)    0.0000                     

(X_U1.NO_DT)    0.0000                (X_U1.PWMIN)    1.0000                    

(X_U1.UVLO1)    5.0000                (X_U1.UVLO2)    5.0000                    

(X_U1.INA_OK)    5.0000               (X_U1.INB_OK)    0.0000                   

(X_U1.PWMINB)    0.0000               (X_U1.UVLO2B)    5.0000                   

(X_U1.INA_INT)    4.9191              (X_U1.INA_OKD)    5.0000                  

(X_U1.INA_PRE)    5.0000              (X_U1.INB_OKD)    0.0000                  

(X_U1.INB_PRE)    0.0000              (X_U1.VCCI_INT)    5.0000                 

(X_U1.DRVA_PASS)    5.0000            (X_U1.DRVB_PASS)    0.0000                

(X_U1.FAULT_INP)    5.0000            (X_U1.N16668890)    8.5000                

(X_U1.N16668898)    8.0000            (X_U1.N16669068)    5.0000                

(X_U1.N16669308)   54.6680            (X_U1.N16669580)    5.0000                

(X_U1.N16669674)    0.0000            (X_U1.N16669834)    2.7000                

(X_U1.N16669842)    2.5000            (X_U1.N16669858)    5.0000                

(X_U1.N16670120)    2.0008            (X_U1.N16670154)    2.0000                

(X_U1.N16670162) 201.4E-12            (X_U1.N16670228)    5.0000                

(X_U1.N16670408)    0.0000            (X_U1.N16670672)    1.0000                

(X_U1.N16670780)    9.4664            (X_U1.N16670790)    5.0000                

(X_U1.N16670816)    4.9977            (X_U1.N16670888)    8.5000                

(X_U1.N16670896)    8.0000            (X_U1.N16671044)   12.0000                

(X_U1.N16671166)    0.0000            (X_U1.N16671236)    0.0000                

(X_U1.N16671468)    5.0010            (X_U1.N16671552)    2.0004                

(X_U1.N16671580)    2.0000            (X_U1.N16671640)    5.0000                

(X_U1.N16671702)    5.0000            (X_U1.N16671830)    5.0000                

(X_U1.N16671850)    0.0000            (X_U1.N16672106)    1.0000                

(X_U1.N16672276)    1.8000            (X_U1.N16672306)    1.0000                

(X_U1.N16672528)    1.0000            (X_U1.N16672594)    0.0000                

(X_U1.N16672776)  -18.0000            (X_U1.N16672784)  -30.1640                

(X_U1.N16672968)  -30.1230            (X_U1.N16673112)    0.0000                

(X_U1.N16673358)    0.0000            (X_U1.N16673432)    1.8000                

(X_U1.N16673492)    1.8000            (X_U1.N16673790) 446.1E-12                

(X_U1.N16698404)    5.0000            (X_U1.N16970878)   43.8550                

(X_U1.N17051744)    5.0000            (X_U1.N17051757)    5.0000                

(X_U1.N17051771)  -25.0000            (X_U1.N17088411)   42.6680                

(X_U1.N17110019) 517.3E-06            (X_U1.N17110021)    0.0000                

(X_U1.N17110038)   34.7750            (X_U1.N17127259)   44.2340                

(X_U1.N17153666)-974.0E-06            (X_U1.N17167704)  -30.0000                

(X_U1.N17167706)    5.0000            (X_U1.N17196585)    5.0000                

(X_U1.N17198437)    5.0000            (X_U1.N17201974)    5.0000                

(X_U1.N17396123)-1.425E-12            (X_U1.N17407797)    5.0000                

(X_U1.N167201110)    5.0000           (X_U1.N167208610)    5.0000               

(X_U1.N167216030)    5.0000           (X_U1.X_U42.YINT)    5.0000               

(X_U1.X_U43.YINT)    5.0000           (X_U1.X_U44.YINT)    5.0000               

(X_U1.X_U54.YINT)    5.0000           (X_U1.X_U61.YINT)    0.0000               

(X_U1.X_U62.YINT)    5.0000           (X_U1.DEAD_THRESH)     .0023              

(X_U1.UVLO1_DELAYED)    5.0000        (X_U1.UVLO2_DELAYED)    4.9995            

(X_U1.UVLO2B_DELAYED)    5.0000       

Resuming Simulation with the following settings
ITL4 = 1000

Convergence problem in transient analysis at Time =  1.210E-03
         Time step =  7.387E-15, minimum allowable step size =  11.00E-15

  These devices failed to converge:
    X_M2.M2   



  Last node voltages tried were:

 NODE   VOLTAGE     NODE   VOLTAGE     NODE   VOLTAGE     NODE   VOLTAGE


(   5V)    5.0000  (   HO)   42.6680  (   LO)  -30.1640  (   VO)   21.2290      

(   VS)   34.7740  (  -5V)   -5.0000  (  15V)   15.0000  (  VCC)   30.0000      

(  VEE)  -30.0000  ( -15V)  -15.0000  (N32061)    1.7531 (N32249)    1.0490     

(N32277)    1.0654 (N36112)     .0330 (N36230)    1.0293 (N37031)    4.9230     

(N40177)   44.2400 (N40195)  -18.0190 (N40287)  -18.0000 (N40377)    0.0000     

(N40401)    0.0000 (N40455)    0.0000 (N40487)    0.0000 (N40543)    4.9977     

(N41468)   40.3400 (N41474)   40.2820 (N41692)  -31.0160 (N41698)  -31.0520     

(PWM_IN)    4.9191 (VERROR)     .8384 (X_M1.4)   30.9930 (X_M1.5)   31.1720     

(X_M1.6)   37.7650 (X_M2.4)  -27.4670 (X_M2.5)   36.1250 (X_M2.6)  -30.7000     

(X_U7.7)    -.3891 (X_U7.8)  -14.3510 (X_U7.9)  -14.9790 (X_U9.3)    1.0506     

(X_U9.4)   14.4220 (X_U9.5)   14.3980 (X_U9.6)     .2737 (X_U9.7)     .2940     

(X_U9.8)    -.2846 (X_U9.9)     .8410 (VTRIANG)   -1.4999                       

(X_M1.11)   31.4300                   (X_M1.12)   31.4300                       

(X_M1.22)   41.0450                   (X_M1.33)   30.9470                       

(X_M2.11)   36.3190                   (X_M2.12)   36.3190                       

(X_M2.22)  -29.5470                   (X_M2.33)  -34.8170                       

(X_U11.3)    1.9175                   (X_U11.4)   14.9530                       

(X_U11.5)   13.8670                   (X_U11.6)     .0065                       

(X_U11.7)    1.1435                   (X_U11.8)     .0065                       

(X_U11.9)    -.0331                   (X_U7.10)     .0211                       

(X_U7.11)     .0211                   (X_U7.21)    1.2884                       

(X_U7.22)   -1.0499                   (X_U9.10)   13.1700                       

(X_U9.11)  -13.1700                   (X_U9.14)    1.0391                       

(X_U9.15) 115.4E-06                   (X_U9.31)     .8310                       

(X_U9.32) 831.0E+03                   (X_U9.33)     .8511                       

(X_U9.34) 851.1E+03                   (X_U9.35)     .8604                       

(X_U9.36)     .8529                   (X_U9.40)     .8464                       

(X_U9.41)     .8064                   (X_U9.42)     .8864                       

(X_U9.45)     .8383                   (X_U9.60)    -.6373                       

(X_U9.61)    0.0000                   (X_U9.62)    0.0000                       

(X_U9.98)    0.0000                   (X_U1.DIS)    0.0000                      

(X_U11.10)   13.1700                  (X_U11.11)  -13.1700                      

(X_U11.14)     .8931                  (X_U11.15)     .0164                      

(X_U11.31)    -.3449                  (X_U11.32)-344.9E+03                      

(X_U11.33)     .2782                  (X_U11.34) 278.2E+03                      

(X_U11.35)     .8581                  (X_U11.36)     .3566                      

(X_U11.40)     .0253                  (X_U11.41)    -.0147                      

(X_U11.42)     .0653                  (X_U11.45)     .0331                      

(X_U11.60)     .6365                  (X_U11.61)    0.0000                      

(X_U11.62)    0.0000                  (X_U11.98)    0.0000                      

(X_U1.DRVA)    5.0000                 (X_U1.DRVB)    0.0000                     

(X_U1.NO_DT)    0.0000                (X_U1.PWMIN)    1.0000                    

(X_U1.UVLO1)    5.0000                (X_U1.UVLO2)    5.0000                    

(X_U1.INA_OK)    5.0000               (X_U1.INB_OK)    0.0000                   

(X_U1.PWMINB)    0.0000               (X_U1.UVLO2B)    5.0000                   

(X_U1.INA_INT)    4.9191              (X_U1.INA_OKD)    5.0000                  

(X_U1.INA_PRE)    5.0000              (X_U1.INB_OKD)    0.0000                  

(X_U1.INB_PRE)    0.0000              (X_U1.VCCI_INT)    5.0000                 

(X_U1.DRVA_PASS)    5.0000            (X_U1.DRVB_PASS)    0.0000                

(X_U1.FAULT_INP)    5.0000            (X_U1.N16668890)    8.5000                

(X_U1.N16668898)    8.0000            (X_U1.N16669068)    5.0000                

(X_U1.N16669308)   54.6680            (X_U1.N16669580)    5.0000                

(X_U1.N16669674)    0.0000            (X_U1.N16669834)    2.7000                

(X_U1.N16669842)    2.5000            (X_U1.N16669858)    5.0000                

(X_U1.N16670120)    2.0008            (X_U1.N16670154)    2.0000                

(X_U1.N16670162) 201.4E-12            (X_U1.N16670228)    5.0000                

(X_U1.N16670408)    0.0000            (X_U1.N16670672)    1.0000                

(X_U1.N16670780)    9.4664            (X_U1.N16670790)    5.0000                

(X_U1.N16670816)    4.9977            (X_U1.N16670888)    8.5000                

(X_U1.N16670896)    8.0000            (X_U1.N16671044)   12.0000                

(X_U1.N16671166)    0.0000            (X_U1.N16671236)    0.0000                

(X_U1.N16671468)    5.0010            (X_U1.N16671552)    2.0004                

(X_U1.N16671580)    2.0000            (X_U1.N16671640)    5.0000                

(X_U1.N16671702)    5.0000            (X_U1.N16671830)    5.0000                

(X_U1.N16671850)    0.0000            (X_U1.N16672106)    1.0000                

(X_U1.N16672276)    1.8000            (X_U1.N16672306)    1.0000                

(X_U1.N16672528)    1.0000            (X_U1.N16672594)    0.0000                

(X_U1.N16672776)  -18.0000            (X_U1.N16672784)  -30.1640                

(X_U1.N16672968)  -30.1230            (X_U1.N16673112)    0.0000                

(X_U1.N16673358)    0.0000            (X_U1.N16673432)    1.8000                

(X_U1.N16673492)    1.8000            (X_U1.N16673790) 446.1E-12                

(X_U1.N16698404)    5.0000            (X_U1.N16970878)   43.8550                

(X_U1.N17051744)    5.0000            (X_U1.N17051757)    5.0000                

(X_U1.N17051771)  -25.0000            (X_U1.N17088411)   42.6680                

(X_U1.N17110019) 517.3E-06            (X_U1.N17110021)    0.0000                

(X_U1.N17110038)   34.7750            (X_U1.N17127259)   44.2340                

(X_U1.N17153666)-973.9E-06            (X_U1.N17167704)  -30.0000                

(X_U1.N17167706)    5.0000            (X_U1.N17196585)    5.0000                

(X_U1.N17198437)    5.0000            (X_U1.N17201974)    5.0000                

(X_U1.N17396123)-1.425E-12            (X_U1.N17407797)    5.0000                

(X_U1.N167201110)    5.0000           (X_U1.N167208610)    5.0000               

(X_U1.N167216030)    5.0000           (X_U1.X_U42.YINT)    5.0000               

(X_U1.X_U43.YINT)    5.0000           (X_U1.X_U44.YINT)    5.0000               

(X_U1.X_U54.YINT)    5.0000           (X_U1.X_U61.YINT)    0.0000               

(X_U1.X_U62.YINT)    5.0000           (X_U1.DEAD_THRESH)     .0023              

(X_U1.UVLO1_DELAYED)    5.0000        (X_U1.UVLO2_DELAYED)    4.9995            

(X_U1.UVLO2B_DELAYED)    5.0000       

Resuming Simulation with the following settings
ITL4 = 125
RELTOL = 0.05


**** 04/05/20 17:20:33 ****** PSpice 17.2.0 (March 2016) ****** ID# 0 ********

 ** Profile: "SCHEMATIC1-tran"  [ C:\Users\emanu\Desktop\DCE-GRUPO10\REALIMENTADOR\PSpice\realimentador-pspicefiles\schematic1\tran.s


 ****     FOURIER ANALYSIS                 TEMPERATURE =   27.000 DEG C


******************************************************************************



FOURIER COMPONENTS OF TRANSIENT RESPONSE V(VO)



 DC COMPONENT =   1.3508E-01

 HARMONIC   FREQUENCY     FOURIER     NORMALIZED     PHASE     NORMALIZED
    NO         (HZ)      COMPONENT     COMPONENT     (DEG)     PHASE (DEG)

     1    1.0000E+03   2.1876E+01   1.0000E+00  -1.5178E+00   0.0000E+00
     2    2.0000E+03   5.2746E-03   2.4111E-04  -1.4253E+02  -1.3950E+02
     3    3.0000E+03   1.4670E-02   6.7057E-04  -1.7959E+02  -1.7503E+02
     4    4.0000E+03   9.1393E-03   4.1777E-04   9.4874E+01   1.0095E+02
     5    5.0000E+03   7.3063E-03   3.3398E-04   1.2159E+02   1.2918E+02
     6    6.0000E+03   1.0828E-02   4.9498E-04   6.0828E+01   6.9935E+01
     7    7.0000E+03   5.0460E-03   2.3066E-04   5.1715E+01   6.2339E+01
     8    8.0000E+03   1.0981E-02   5.0194E-04   1.7236E+01   2.9378E+01
     9    9.0000E+03   6.5328E-03   2.9863E-04   8.1957E+01   9.5617E+01


     TOTAL HARMONIC DISTORTION =   1.1972E-01 PERCENT


          JOB CONCLUDED
 AutoConverge Simulator Options
 ITL1 = 150
 ITL2 = 20
 ITL4 = 100
 RELTOL = 0.05
 ABSTOL = 1e-006
 VNTOL = 1e-006
 PIVTOL = 1e-013

**** 04/05/20 17:20:33 ****** PSpice 17.2.0 (March 2016) ****** ID# 0 ********

 ** Profile: "SCHEMATIC1-tran"  [ C:\Users\emanu\Desktop\DCE-GRUPO10\REALIMENTADOR\PSpice\realimentador-pspicefiles\schematic1\tran.s


 ****     JOB STATISTICS SUMMARY


******************************************************************************



  Total job time (using Solver 1)   =      503.83
