
**** 05/26/20 20:57:42 ****** PSpice 17.2.0 (March 2016) ****** ID# 0 ********

 ** Profile: "SCHEMATIC1-tran"  [ C:\Users\Comumar\Desktop\Fiuba\Circuitos 2\NUEVO\DCE-GRUPO10\REALIMENTADOR\PSpice\realimentador-psp


 ****     CIRCUIT DESCRIPTION


******************************************************************************




** Creating circuit file "tran.cir" 
** WARNING: THIS AUTOMATICALLY GENERATED FILE MAY BE OVERWRITTEN BY SUBSEQUENT SIMULATIONS

*Libraries: 
* Profile Libraries :
* Local Libraries :
.LIB "../../../lib/ucc20520_pspice_trans/ucc20520_trans.lib" 
* From [PSPICE NETLIST] section of C:\Cadence\SPB_Data\cdssetup\OrCAD_PSpice\17.2.0\PSpice.ini file:
.lib "nom.lib" 

*Analysis directives: 
.TRAN  0 1.5m 1m 
.FOUR 20E3 3 V([VO]) 
.OPTIONS ADVCONV
.OPTIONS SOLVER= 1
.OPTIONS METHOD= Default
.OPTIONS THREADS= 8
.OPTIONS SPEED_LEVEL= 0
.AUTOCONVERGE ITL1=1000 ITL2=1000 ITL4=1000 RELTOL=0.05 ABSTOL=1.0E-6 VNTOL=.001 PIVTOL=1.0E-10 
.PROBE64 V(alias(*)) I(alias(*)) W(alias(*)) D(alias(*)) NOISE(alias(*)) 
.INC "..\SCHEMATIC1.net" 



**** INCLUDING SCHEMATIC1.net ****
* source REALIMENTADOR
V_V3         VCC 0 30Vdc
V_V5         5V 0 5Vdc
V_V4         0 VEE 30Vdc
V_V6         VERROR 0  
+SIN 0 1.1 20k 0 0 0
V_V7         0 -5V 5Vdc
V_V8         15V 0 15Vdc
V_V9         0 -15V 15Vdc
R_R14         N32061 0  19k TC=0,0 
R_R15         0 N32061  1k TC=0,0 
R_R16         0 N32249  1k TC=0,0 
R_R17         0 N32249  82k TC=0,0 
R_R18         N36230 N36112  1k TC=0,0 
R_R19         N36230 N36267  82k TC=0,0 
V_V2         VTRIANG 0  
+PULSE -1.5 1.5 0 2.499u 2.499u 1n 5u
R_R21         PWM_IN N37031  51 TC=0,0 
C_C13         0 PWM_IN  33p  TC=0,0 
R_R20         N37031 5V  1k TC=0,0 
X_U7         VERROR VTRIANG 15V -15V N37031 0 LM311 
C_C6         VS N40177  100n  TC=0,0 
C_C3         VEE N40287  10u  TC=0,0 
R_R2         N40287 N40195  10 TC=0,0 
R_R8         N40377 0  1 TC=0,0 
R_R11         0 N40401  1 TC=0,0 
C_C4         VEE N40287  220n  TC=0,0 
R_R9         N40455 0  1 TC=0,0 
D_D6         N40195 N40177 D1N4148 
R_R1         0 N40543  2.2k TC=0,0 
C_C1         0 N40543  2.2n  TC=0,0 
R_R10         0 N40487  1 TC=0,0 
X_U1         0 N40543 0 N40401 N40487 N40455 N40377 HO LO PWM_IN 5V 5V N40177
+  N40287 VS VEE UCC20520_TRANS
C_C5         VS N40177  1u  TC=0,0 
V_V1         N40287 VEE 12Vdc
C_C2         VEE N40287  10u  TC=0,0 
C_C8         VEE N41698  1n  TC=0,0 
D_D3         N41468 HO MURS320T3G 
X_M1         VCC N41474 VS PHB27NQ10T/PLP
X_M2         VS N41698 VEE PHB27NQ10T/PLP
R_R4         HO N41474  3.3 TC=0,0 
R_R3         LO N41698  3.3 TC=0,0 
L_L1         VS VO  33u  
C_C7         VS N41474  1n  TC=0,0 
R_R6         N41692 N41698  1.2 TC=0,0 
D_D4         N41692 LO MURS320T3G 
R_R5         N41468 N41474  1.2 TC=0,0 
R_R7         0 VO  8 TC=0,0 
C_C9         0 VO  330n  TC=0,0 
X_U9         N32249 N36230 15V -15V N36267 AD817/AD
X_U11         N32061 N36112 15V -15V N36112 AD817/AD
C_C15         N36230 N36267  220p  TC=0,0 
C_C16         0 N32249  220p  TC=0,0 

**** RESUMING tran.cir ****
.END

WARNING(ORPSIM-15223): Library file "C:\Users\Comumar\Desktop\Fiuba\Circuitos 2\NUEVO\DCE-GRUPO10\REALIMENTADOR\PSpice\lib\ucc20520_pspice_trans\ucc20520_trans.lib" has changed since index file ucc20520_trans.ind was created.

WARNING(ORPSIM-15227): The timestamp changed from Wed Oct 05 07:16:04 2016 to Tue May 26 20:52:39 2020.

INFO(ORPSIM-15422): Making new index file ucc20520_trans.ind for library file ucc20520_trans.lib.

Index has 14 entries from 1 file(s).

**** 05/26/20 20:57:42 ****** PSpice 17.2.0 (March 2016) ****** ID# 0 ********

 ** Profile: "SCHEMATIC1-tran"  [ C:\Users\Comumar\Desktop\Fiuba\Circuitos 2\NUEVO\DCE-GRUPO10\REALIMENTADOR\PSpice\realimentador-psp


 ****     Diode MODEL PARAMETERS


******************************************************************************




               D1N4148         MURS320T3G      X_U7.dx         X_M1.Dbody      
          IS    2.682000E-09   23.789000E-09  800.000000E-18   10.000000E-15 
           N    1.836           1.6119                           .85         
         ISR    1.565000E-09   19.406000E-09                                 
          NR                    3.5766                                       
         IKF     .04417        61.67                            1.000000E+03 
          BV  100             200                             100            
         IBV  100.000000E-06  800.000000E-09                  250.000000E-06 
          RS     .5664          8.451400E-03                    8.300000E-03 
          TT   11.540000E-09   35.000000E-09                   60.000000E-09 
         CJO    4.000000E-12  137.580000E-12                                 
          VJ     .5             1.4981                           .4          
           M     .3333           .49862                                      
          EG                    1.0274                                       
         XTI                    5.000000E-09                                 


               X_M2.Dbody      X_U9.DX         X_U11.DX        X_U1.X_U48.dd   
          IS   10.000000E-15   10.000000E-15   10.000000E-15   10.000000E-15 
           N     .85                                            1.000000E-03 
         IKF    1.000000E+03                                                 
          BV  100                                                            
         IBV  250.000000E-06                                                 
          RS    8.300000E-03                                                 
          TT   60.000000E-09                                                 
          VJ     .4                                                          


               X_U1.X_U40.dd   X_U1.X_U47.dd   X_U1.X_U57.dd   X_U1.X_U55.dd   
          IS   10.000000E-15   10.000000E-15   10.000000E-15   10.000000E-15 
           N    1.000000E-03    1.000000E-03    1.000000E-03    1.000000E-03 


               X_U1.X_U33.dd   X_U1.X_U37.dd   X_U1.X_U38.dd   X_U1.X_U35.dd   
          IS   10.000000E-15   10.000000E-15   10.000000E-15   10.000000E-15 
           N    1.000000E-03    1.000000E-03    1.000000E-03    1.000000E-03 


               X_U1.X_U56.dd   X_U1.X_U59.dd   X_U1.X_U60.dd   X_U1.X_U39.dd   
          IS   10.000000E-15   10.000000E-15   10.000000E-15   10.000000E-15 
           N    1.000000E-03    1.000000E-03    1.000000E-03    1.000000E-03 


**** 05/26/20 20:57:42 ****** PSpice 17.2.0 (March 2016) ****** ID# 0 ********

 ** Profile: "SCHEMATIC1-tran"  [ C:\Users\Comumar\Desktop\Fiuba\Circuitos 2\NUEVO\DCE-GRUPO10\REALIMENTADOR\PSpice\realimentador-psp


 ****     BJT MODEL PARAMETERS


******************************************************************************




               X_U7.qin        X_U7.qmi        X_U7.qmo        X_U7.qoc        
               PNP             NPN             NPN             NPN             
       LEVEL    1               1               1               1            
          IS  800.000000E-18  800.000000E-18  800.000000E-18  800.000000E-18 
          BF  500               1.002000E+03    1.000000E+03  206.900000E+03 
          NF    1               1               1               1            
          BR    1               1               1               1            
          NR    1               1               1               1            
         ISS    0               0               0               0            
          RE    0               0               0               0            
          RC    0               0               0               0            
         CJE    0               0               0               0            
         VJE     .75             .75             .75             .75         
         CJC    0               0               1.000000E-15    1.000000E-15 
         VJC     .75             .75             .75             .75         
         MJC     .33             .33             .33             .33         
        XCJC    1               1               1               1            
         CJS    0               0               0               0            
         VJS     .75             .75             .75             .75         
          TF                                                    7.855000E-12 
          TR                                  124.200000E-09   83.830000E-09 
          KF    0               0               0               0            
          AF    1               1               1               1            
          CN    2.2             2.42            2.42            2.42         
           D     .52             .87             .87             .87         


               X_U9.QN         X_U11.QN        
               NPN             NPN             
       LEVEL    1               1            
          IS  100.000000E-18  100.000000E-18 
          BF  151.52          151.52         
          NF    1               1            
          BR    1               1            
          NR    1               1            
         ISS    0               0            
          RE    0               0            
          RC    0               0            
         CJE    0               0            
         VJE     .75             .75         
         CJC    0               0            
         VJC     .75             .75         
         MJC     .33             .33         
        XCJC    1               1            
         CJS    0               0            
         VJS     .75             .75         
          KF    0               0            
          AF    1               1            
          CN    2.42            2.42         
           D     .87             .87         


**** 05/26/20 20:57:42 ****** PSpice 17.2.0 (March 2016) ****** ID# 0 ********

 ** Profile: "SCHEMATIC1-tran"  [ C:\Users\Comumar\Desktop\Fiuba\Circuitos 2\NUEVO\DCE-GRUPO10\REALIMENTADOR\PSpice\realimentador-psp


 ****     MOSFET MODEL PARAMETERS


******************************************************************************




               X_M1.MOST1      X_M1.MOST2      X_M2.MOST1      X_M2.MOST2      
               NMOS            NMOS            NMOS            NMOS            
       LEVEL    3               3               3               3            
           L  300.000000E-09  300.000000E-09  300.000000E-09  300.000000E-09 
           W     .1              .1              .1              .1          
         VTO    3.73           -2.7             3.73           -2.7          
          KP   40.800000E-06   40.800000E-06   40.800000E-06   40.800000E-06 
       GAMMA    0               0               0               0            
         PHI     .6              .6              .6              .6          
      LAMBDA    0               0               0               0            
          RD                    1.000000E+03                    1.000000E+03 
          RS                    1.000000E+03                    1.000000E+03 
          IS    0               0               0               0            
          JS    0               0               0               0            
          PB     .8              .8              .8              .8          
        PBSW     .8              .8              .8              .8          
          CJ    0               0               0               0            
        CJSW    0               0               0               0            
        CGSO    0               0               0               0            
        CGDO    0               0               0               0            
        CGBO    0               0               0               0            
         NFS    1.100000E+12                    1.100000E+12                 
         TOX  100.000000E-09  100.000000E-09  100.000000E-09  100.000000E-09 
          XJ  500.000000E-09  500.000000E-09  500.000000E-09  500.000000E-09 
          UO  650             650             650             650            
       UCRIT   10.000000E+03   10.000000E+03   10.000000E+03   10.000000E+03 
       DELTA     .1              .1              .1              .1          
         ETA  100.000000E-06  100.000000E-06  100.000000E-06  100.000000E-06 
       KAPPA     .1              .1              .1              .1          
      DIOMOD    1               1               1               1            
         VFB    0               0               0               0            
        LETA    0               0               0               0            
        WETA    0               0               0               0            
          U0    0               0               0               0            
        TEMP    0               0               0               0            
         VDD    5               5               5               5            
       XPART    0               0               0               0            


               X_U1.X_M13._mod X_U1.X_M15._mod X_U1.X_M14._mod X_U1.X_M12._mod 
               NMOS            NMOS            NMOS            NMOS            
       LEVEL    1               1               1               1            
           L   10.000000E-09   10.000000E-09   10.000000E-09   10.000000E-09 
           W    2.4             2.4              .285            .285        
         VTO    0               0               0               0            
          KP    2.000000E-09    2.000000E-09    2.000000E-09    2.000000E-09 
       GAMMA    0               0               0               0            
         PHI     .6              .6              .6              .6          
      LAMBDA    0               0               0               0            
          IS   10.000000E-15   10.000000E-15   10.000000E-15   10.000000E-15 
          JS    0               0               0               0            
           N    2.5             2.5             2.5             2.5          
          PB     .8              .8              .8              .8          
        PBSW     .8              .8              .8              .8          
          CJ    0               0               0               0            
        CJSW    0               0               0               0            
        CGSO    0               0               0               0            
        CGDO    0               0               0               0            
        CGBO    0               0               0               0            
         TOX    0               0               0               0            
          XJ    0               0               0               0            
       UCRIT   10.000000E+03   10.000000E+03   10.000000E+03   10.000000E+03 
      DIOMOD    1               1               1               1            
         VFB    0               0               0               0            
        LETA    0               0               0               0            
        WETA    0               0               0               0            
          U0    0               0               0               0            
        TEMP    0               0               0               0            
         VDD    5               5               5               5            
       XPART    0               0               0               0            


**** 05/26/20 20:57:42 ****** PSpice 17.2.0 (March 2016) ****** ID# 0 ********

 ** Profile: "SCHEMATIC1-tran"  [ C:\Users\Comumar\Desktop\Fiuba\Circuitos 2\NUEVO\DCE-GRUPO10\REALIMENTADOR\PSpice\realimentador-psp


 ****     Resistor MODEL PARAMETERS


******************************************************************************




               X_M1.Rtemp      X_M2.Rtemp      
           R    1               1            
         TC1    6.810000E-03    6.810000E-03 
         TC2   28.600000E-06   28.600000E-06 


**** 05/26/20 20:57:42 ****** PSpice 17.2.0 (March 2016) ****** ID# 0 ********

 ** Profile: "SCHEMATIC1-tran"  [ C:\Users\Comumar\Desktop\Fiuba\Circuitos 2\NUEVO\DCE-GRUPO10\REALIMENTADOR\PSpice\realimentador-psp


 ****     Voltage Controlled Switch MODEL PARAMETERS


******************************************************************************




               X_U1.X_S1._S1   X_U1.X_S6._S6   X_U1.X_S3._S3   X_U1.X_S4._S4   
         RON     .01            5.000000E-03   25               5.000000E-03 
        ROFF    1.000000E+09    1.000000E+06    1.000000E+06    1.000000E+06 
         VON    4               4.5             4.5             4.5          
        VOFF    1                .5              .5              .5          


               X_U1.X_S5._S5   X_U1.X_S2._S2   
         RON   25                .01         
        ROFF    1.000000E+06    1.000000E+09 
         VON    4.5             4            
        VOFF     .5             1            


**** 05/26/20 20:57:42 ****** PSpice 17.2.0 (March 2016) ****** ID# 0 ********

 ** Profile: "SCHEMATIC1-tran"  [ C:\Users\Comumar\Desktop\Fiuba\Circuitos 2\NUEVO\DCE-GRUPO10\REALIMENTADOR\PSpice\realimentador-psp


 ****     INITIAL TRANSIENT SOLUTION       TEMPERATURE =   27.000 DEG C


******************************************************************************



 NODE   VOLTAGE     NODE   VOLTAGE     NODE   VOLTAGE     NODE   VOLTAGE


(   5V)    5.0000  (   HO)-662.0E-06  (   LO)  -30.0000  (   VO)-63.17E-09      

(   VS)-63.17E-09  (  -5V)   -5.0000  (  15V)   15.0000  (  VCC)   30.0000      

(  VEE)  -30.0000  ( -15V)  -15.0000  (N32061)    -.0031 (N32249)    -.0032     

(N36112)    -.0026 (N36230)    -.0028 (N36267)     .2527 (N37031)    4.9751     

(N40177)    -.0013 (N40195)  -18.0000 (N40287)  -18.0000 (N40377)    0.0000     

(N40401)    0.0000 (N40455)    0.0000 (N40487)    0.0000 (N40543)    4.9977     

(N41468)-662.0E-06 (N41474)-662.0E-06 (N41692)  -30.0000 (N41698)  -30.0000     

(PWM_IN)    4.9739 (VERROR)    0.0000 (X_M1.4)    2.9359 (X_M1.5)   30.0000     

(X_M1.6)-662.0E-06 (X_M2.4)  -27.0630 (X_M2.5)-63.17E-09 (X_M2.6)  -30.0000     

(X_U7.7)    -.3892 (X_U7.8)  -14.3500 (X_U7.9)  -14.9820 (X_U9.3)    -.0027     

(X_U9.4)   14.4100 (X_U9.5)   14.4100 (X_U9.6)    -.7589 (X_U9.7)    -.7588     

(X_U9.8)   -1.3274 (X_U9.9)     .2527 (VTRIANG)   -1.5000                       

(X_M1.11)   30.0000                   (X_M1.12)   30.0000                       

(X_M1.22)-662.0E-06                   (X_M1.33)-63.17E-09                       

(X_M2.11)-63.17E-09                   (X_M2.12)-63.17E-09                       

(X_M2.22)  -30.0000                   (X_M2.33)  -30.0000                       

(X_U11.3)    -.0026                   (X_U11.4)   14.4100                       

(X_U11.5)   14.4100                   (X_U11.6)    -.7587                       

(X_U11.7)    -.7587                   (X_U11.8)   -1.3272                       

(X_U11.9)    -.0026                   (X_U7.10)     .0179                       

(X_U7.11)     .0179                   (X_U7.21)     .4500                       

(X_U7.22)   -1.0500                   (X_U9.10)   13.1700                       

(X_U9.11)  -13.1700                   (X_U9.14)    -.0030                       

(X_U9.15)-3.002E-09                   (X_U9.31)     .2527                       

(X_U9.32) 252.7E+03                   (X_U9.33)     .2527                       

(X_U9.34) 252.7E+03                   (X_U9.35)     .2527                       

(X_U9.36)     .2527                   (X_U9.40)     .2527                       

(X_U9.41)     .2127                   (X_U9.42)     .2927                       

(X_U9.45)     .2527                   (X_U9.60)    -.4879                       

(X_U9.61)    0.0000                   (X_U9.62)    0.0000                       

(X_U9.98)    0.0000                   (X_U1.DIS)    0.0000                      

(X_U11.10)   13.1700                  (X_U11.11)  -13.1700                      

(X_U11.14)    -.0029                  (X_U11.15)-2.852E-09                      

(X_U11.31)    -.0026                  (X_U11.32)-2574.3000                      

(X_U11.33)    -.0026                  (X_U11.34)-2574.2000                      

(X_U11.35)    -.0026                  (X_U11.36)    -.0026                      

(X_U11.40)    -.0026                  (X_U11.41)    -.0426                      

(X_U11.42)     .0374                  (X_U11.45)    -.0026                      

(X_U11.60)    -.4907                  (X_U11.61)    0.0000                      

(X_U11.62)    0.0000                  (X_U11.98)    0.0000                      

(X_U1.DRVA)    0.0000                 (X_U1.DRVB)    0.0000                     

(X_U1.NO_DT)    0.0000                (X_U1.PWMIN)    1.0000                    

(X_U1.UVLO1)    5.0000                (X_U1.UVLO2)    0.0000                    

(X_U1.INA_OK)    5.0000               (X_U1.INB_OK)    0.0000                   

(X_U1.PWMINB)    0.0000               (X_U1.UVLO2B)    5.0000                   

(X_U1.INA_INT)    4.9739              (X_U1.INA_OKD)    5.0000                  

(X_U1.INA_PRE)    5.0000              (X_U1.INB_OKD)    0.0000                  

(X_U1.INB_PRE)    0.0000              (X_U1.VCCI_INT)    5.0000                 

(X_U1.DRVA_PASS)    0.0000            (X_U1.DRVB_PASS)    0.0000                

(X_U1.FAULT_INP)    5.0000            (X_U1.N16668890)    8.5000                

(X_U1.N16668898)    8.5000            (X_U1.N16669068)    0.0000                

(X_U1.N16669308)-662.0E-06            (X_U1.N16669580)    5.0000                

(X_U1.N16669674)    0.0000            (X_U1.N16669834)    2.7000                

(X_U1.N16669842)    2.5000            (X_U1.N16669858)    5.0000                

(X_U1.N16670120) 90.87E-06            (X_U1.N16670154)    2.0000                

(X_U1.N16670162)-22.27E-18            (X_U1.N16670228)    0.0000                

(X_U1.N16670408)    0.0000            (X_U1.N16670672)    1.0000                

(X_U1.N16670780)    -.0013            (X_U1.N16670790)    0.0000                

(X_U1.N16670816)    4.9977            (X_U1.N16670888)    8.5000                

(X_U1.N16670896)    8.0000            (X_U1.N16671044)   12.0000                

(X_U1.N16671166)    0.0000            (X_U1.N16671236)    0.0000                

(X_U1.N16671468)    0.0000            (X_U1.N16671552) 8.020E-15                

(X_U1.N16671580)    2.0000            (X_U1.N16671640)    0.0000                

(X_U1.N16671702)    0.0000            (X_U1.N16671830)    5.0000                

(X_U1.N16671850)    0.0000            (X_U1.N16672106)    1.0000                

(X_U1.N16672276)    1.8000            (X_U1.N16672306)    1.0000                

(X_U1.N16672528)    1.0000            (X_U1.N16672594)    0.0000                

(X_U1.N16672776)  -18.0000            (X_U1.N16672784)  -30.0000                

(X_U1.N16672968)  -30.0000            (X_U1.N16673112)    0.0000                

(X_U1.N16673358)    0.0000            (X_U1.N16673432)    1.8000                

(X_U1.N16673492)    1.8000            (X_U1.N16673790)    0.0000                

(X_U1.N16698404)    5.0000            (X_U1.N16970878)    -.0013                

(X_U1.N17051744)    5.0000            (X_U1.N17051757)    5.0000                

(X_U1.N17051771)  -25.0000            (X_U1.N17088411)-500.0E-06                

(X_U1.N17110019)    5.0000            (X_U1.N17110021)    5.0000                

(X_U1.N17110038)    5.0000            (X_U1.N17127259)-63.18E-09                

(X_U1.N17153666)    5.0000            (X_U1.N17167704)  -30.0000                

(X_U1.N17167706)    5.0000            (X_U1.N17196585)    0.0000                

(X_U1.N17198437)    5.0000            (X_U1.N17201974)    5.0000                

(X_U1.N17396123)-15.66E-21            (X_U1.N17407797)    5.0000                

(X_U1.N167201110)-73.22E-21           (X_U1.N167208610)    5.0000               

(X_U1.N167216030)    5.0000           (X_U1.X_U42.YINT)    0.0000               

(X_U1.X_U43.YINT)    5.0000           (X_U1.X_U44.YINT)    5.0000               

(X_U1.X_U54.YINT)    5.0000           (X_U1.X_U61.YINT)    5.0000               

(X_U1.X_U62.YINT)    5.0000           (X_U1.DEAD_THRESH)     .0023              

(X_U1.UVLO1_DELAYED)    5.0000        (X_U1.UVLO2_DELAYED) 10.77E-18            

(X_U1.UVLO2B_DELAYED)    5.0000       




    VOLTAGE SOURCE CURRENTS
    NAME         CURRENT

    V_V3         1.281E-09
    V_V5        -4.797E-03
    V_V4        -8.008E-09
    V_V6        -1.543E-11
    V_V7         0.000E+00
    V_V8        -1.833E-02
    V_V9        -1.833E-02
    V_V2         1.996E-07
    V_V1        -1.212E-03
    X_U7.vi1    -1.543E-11
    X_U7.vi2     1.996E-07
    X_U7.v1     -4.958E-12
    X_U1.V_V8   -4.010E-12
    X_U1.V_V1    0.000E+00
    X_U1.V_V10   0.000E+00
    X_U1.V_V11   0.000E+00
    X_U1.V_V6    0.000E+00
    X_U1.V_V12   0.000E+00
    X_U1.V_V13   0.000E+00
    X_U1.V_V2    0.000E+00
    X_U1.V_V14   0.000E+00
    X_U1.V_V9    0.000E+00
    X_U1.V_V7    0.000E+00
    X_U1.V_V3    0.000E+00
    X_U1.V_V5   -4.543E-02
    X_U9.V1      1.293E-11
    X_U9.V2      1.343E-11
    X_U9.V7     -4.979E-13
    X_U9.V8      1.558E-06
    X_U9.V5     -4.784E-14
    X_U9.V6     -4.790E-14
    X_U11.V1     1.318E-11
    X_U11.V2     1.318E-11
    X_U11.V7    -5.007E-13
    X_U11.V8     1.733E-06
    X_U11.V5    -4.785E-14
    X_U11.V6    -4.790E-14
    X_U1.X_H1.VH_H1   2.272E-03

    TOTAL POWER DISSIPATION   6.79E-01  WATTS

Convergence problem in transient analysis at Time =  1.500E-06
         Time step =  618.1E-18, minimum allowable step size =  1.500E-15

  These voltages failed to converge:

    V(X_M1.22)                =   -1.341mV  \  -958.10uV
    V(X_M1.33)                =  -678.59uV  \  -296.12uV
    V(X_M1.6)                 =   -1.341mV  \  -958.10uV
    V(X_M2.11)                =  -691.55uV  \   -7.930uV
    V(X_M2.5)                 =  -691.55uV  \   -7.930uV
    V(X_M2.12)                =  -691.55uV  \   -7.930uV

  These supply currents failed to converge:

    I(X_U1.E_E15)             =   -17.96pA  \   -4.197pA
    I(X_U1.E_E27)             =   -2.052mA  \  -576.89mA
    I(X_U9.EREF)              =   -2.027pA  \  -275.33fA
    I(X_U11.ECM)              =    2.762nA  \    2.858nA
    I(X_M1.L1)                =  -244.59pA  \   -1.149nA
    I(X_M1.L2)                =   879.97pA  \   458.06pA
    I(X_M1.L3)                =   741.73pA  \   319.82pA
    I(X_M2.L1)                =    1.508nA  \   628.64pA
    I(X_M2.L2)                =   275.34pA  \  -135.17pA
    I(X_M2.L3)                =   131.94pA  \  -278.57pA
    I(V_V3)                   =   244.59pA  \    1.149nA
    I(V_V4)                   =   -1.185uA  \   256.46nA
    I(V_V1)                   =   -1.205mA  \   -1.211mA
    I(X_U1.V_V5)              =    9.473nA  \    5.217nA

  These devices failed to converge:
    D_D3      D_D4      X_U1.X_U47.d1 X_U1.X_U38.d1 X_U1.E_ABM29 X_U1.G_ABM2I2 
    X_U1.G_ABM2I1 



  Last node voltages tried were:

 NODE   VOLTAGE     NODE   VOLTAGE     NODE   VOLTAGE     NODE   VOLTAGE


(   5V)    5.0000  (   HO)-662.1E-06  (   LO)  -30.0000  (   VO)-63.17E-09      

(   VS)-143.5E-09  (  -5V)   -5.0000  (  15V)   15.0000  (  VCC)   30.0000      

(  VEE)  -30.0000  ( -15V)  -15.0000  (N32061)    -.0031 (N32249)    -.0032     

(N36112)    -.0026 (N36230)    -.0028 (N36267)     .2527 (N37031)     .1402     

(N40177)    -.0013 (N40195)  -18.0000 (N40287)  -18.0000 (N40377)    0.0000     

(N40401)    0.0000 (N40455)    0.0000 (N40487)    0.0000 (N40543)    4.9977     

(N41468)-662.1E-06 (N41474)-662.1E-06 (N41692)  -30.0000 (N41698)  -30.0000     

(PWM_IN)     .1424 (VERROR)     .2061 (X_M1.4)    2.9352 (X_M1.5)   29.9990     

(X_M1.6)    -.0013 (X_M2.4)  -27.0640 (X_M2.5)-691.5E-06 (X_M2.6)  -30.0010     

(X_U7.7)    1.3162 (X_U7.8)  -14.4340 (X_U7.9)  -14.2380 (X_U9.3)    -.0027     

(X_U9.4)   14.4100 (X_U9.5)   14.4100 (X_U9.6)    -.7589 (X_U9.7)    -.7588     

(X_U9.8)   -1.3274 (X_U9.9)     .2527 (VTRIANG)     .3005                       

(X_M1.11)   29.9990                   (X_M1.12)   29.9990                       

(X_M1.22)    -.0013                   (X_M1.33)-678.6E-06                       

(X_M2.11)-691.5E-06                   (X_M2.12)-691.5E-06                       

(X_M2.22)  -30.0010                   (X_M2.33)  -30.0010                       

(X_U11.3)    -.0026                   (X_U11.4)   14.4100                       

(X_U11.5)   14.4100                   (X_U11.6)    -.7587                       

(X_U11.7)    -.7587                   (X_U11.8)   -1.3272                       

(X_U11.9)    -.0026                   (X_U7.10)     .7622                       

(X_U7.11)     .7622                   (X_U7.21)     .6561                       

(X_U7.22)     .7505                   (X_U9.10)   13.1700                       

(X_U9.11)  -13.1700                   (X_U9.14)    -.0030                       

(X_U9.15)-3.002E-09                   (X_U9.31)     .2527                       

(X_U9.32) 252.7E+03                   (X_U9.33)     .2527                       

(X_U9.34) 252.7E+03                   (X_U9.35)     .2527                       

(X_U9.36)     .2527                   (X_U9.40)     .2527                       

(X_U9.41)     .2127                   (X_U9.42)     .2927                       

(X_U9.45)     .2527                   (X_U9.60)    -.4879                       

(X_U9.61)    0.0000                   (X_U9.62)    0.0000                       

(X_U9.98)    0.0000                   (X_U1.DIS)    0.0000                      

(X_U11.10)   13.1700                  (X_U11.11)  -13.1700                      

(X_U11.14)    -.0029                  (X_U11.15)-2.762E-09                      

(X_U11.31)    -.0026                  (X_U11.32)-2574.2000                      

(X_U11.33)    -.0026                  (X_U11.34)-2574.2000                      

(X_U11.35)    -.0026                  (X_U11.36)    -.0026                      

(X_U11.40)    -.0026                  (X_U11.41)    -.0426                      

(X_U11.42)     .0374                  (X_U11.45)    -.0026                      

(X_U11.60)    -.4907                  (X_U11.61)    0.0000                      

(X_U11.62)    0.0000                  (X_U11.98)    0.0000                      

(X_U1.DRVA)    0.0000                 (X_U1.DRVB)    0.0000                     

(X_U1.NO_DT)    0.0000                (X_U1.PWMIN)    0.0000                    

(X_U1.UVLO1)    5.0000                (X_U1.UVLO2)    0.0000                    

(X_U1.INA_OK)    2.4999               (X_U1.INB_OK)    2.5001                   

(X_U1.PWMINB)    1.0000               (X_U1.UVLO2B)    5.0000                   

(X_U1.INA_INT)     .1424              (X_U1.INA_OKD)    2.4999                  

(X_U1.INA_PRE)    0.0000              (X_U1.INB_OKD)    2.5001                  

(X_U1.INB_PRE)    5.0000              (X_U1.VCCI_INT)    5.0000                 

(X_U1.DRVA_PASS)    5.0000            (X_U1.DRVB_PASS)    0.0000                

(X_U1.FAULT_INP)    5.0000            (X_U1.N16668890)    8.5000                

(X_U1.N16668898)    8.5000            (X_U1.N16669068)    0.0000                

(X_U1.N16669308)-662.1E-06            (X_U1.N16669580)    2.4999                

(X_U1.N16669674)    0.0000            (X_U1.N16669834)    2.7000                

(X_U1.N16669842)    2.5000            (X_U1.N16669858)    5.0000                

(X_U1.N16670120)    2.0008            (X_U1.N16670154)    2.0000                

(X_U1.N16670162)    2.4989            (X_U1.N16670228)    5.0000                

(X_U1.N16670408)    0.0000            (X_U1.N16670672)    1.0000                

(X_U1.N16670780)    -.0013            (X_U1.N16670790)    0.0000                

(X_U1.N16670816)    4.9977            (X_U1.N16670888)    8.5000                

(X_U1.N16670896)    8.0000            (X_U1.N16671044)   12.0000                

(X_U1.N16671166)    0.0000            (X_U1.N16671236)    0.0000                

(X_U1.N16671468)    5.0000            (X_U1.N16671552) 6.030E-09                

(X_U1.N16671580)    2.0000            (X_U1.N16671640)    0.0000                

(X_U1.N16671702)    0.0000            (X_U1.N16671830)    4.7528                

(X_U1.N16671850)    0.0000            (X_U1.N16672106)    1.0000                

(X_U1.N16672276)    1.8000            (X_U1.N16672306)    1.8000                

(X_U1.N16672528)     .0717            (X_U1.N16672594)    0.0000                

(X_U1.N16672776)  -18.0000            (X_U1.N16672784)  -30.0000                

(X_U1.N16672968)  -30.0000            (X_U1.N16673112)    2.5001                

(X_U1.N16673358)    0.0000            (X_U1.N16673432)    1.8000                

(X_U1.N16673492)    1.8000            (X_U1.N16673790)     .9283                

(X_U1.N16698404)    5.0000            (X_U1.N16970878)    -.0013                

(X_U1.N17051744)    5.0000            (X_U1.N17051757)    5.0000                

(X_U1.N17051771)  -25.0000            (X_U1.N17088411)-500.1E-06                

(X_U1.N17110019)    5.0000            (X_U1.N17110021)    5.0000                

(X_U1.N17110038)    5.0000            (X_U1.N17127259)-143.6E-09                

(X_U1.N17153666)    5.0000            (X_U1.N17167704)  -30.0000                

(X_U1.N17167706)    5.0000            (X_U1.N17196585)    0.0000                

(X_U1.N17198437)    5.0000            (X_U1.N17201974)    5.0000                

(X_U1.N17396123)    2.4989            (X_U1.N17407797)    4.5940                

(X_U1.N167201110) 1.390E-24           (X_U1.N167208610)    5.0000               

(X_U1.N167216030)    5.0000           (X_U1.X_U42.YINT)    0.0000               

(X_U1.X_U43.YINT)    5.0000           (X_U1.X_U44.YINT)    5.0000               

(X_U1.X_U54.YINT)    5.0000           (X_U1.X_U61.YINT)    5.0000               

(X_U1.X_U62.YINT)    5.0000           (X_U1.DEAD_THRESH)     .0023              

(X_U1.UVLO1_DELAYED)    5.0000        (X_U1.UVLO2_DELAYED) 10.55E-18            

(X_U1.UVLO2B_DELAYED)    5.0000       

Resuming Simulation with the following settings
ITL4 = 1000
ABSTOL = 1.26e-010
VNTOL = 4.47e-005

Convergence problem in transient analysis at Time =  8.098E-06
         Time step =  989.4E-18, minimum allowable step size =  1.500E-15

  These supply currents failed to converge:

    I(X_U1.E_E15)             =    52.66nA  \   161.33pA
    I(X_U11.ECM)              =    2.715nA  \    2.852nA

  These devices failed to converge:
    X_M1.M2   



  Last node voltages tried were:

 NODE   VOLTAGE     NODE   VOLTAGE     NODE   VOLTAGE     NODE   VOLTAGE


(   5V)    5.0000  (   HO)   -2.8780  (   LO)  -29.7800  (   VO)   -2.8256      

(   VS)   -2.7925  (  -5V)   -5.0000  (  15V)   15.0000  (  VCC)   30.0000      

(  VEE)  -30.0000  ( -15V)  -15.0000  (N32061)    -.0031 (N32249)    -.0032     

(N36112)    -.0026 (N36230)    -.0028 (N36267)     .2527 (N37031)    4.1014     

(N40177)    -.3419 (N40195)  -17.8110 (N40287)  -18.0000 (N40377)    0.0000     

(N40401)    0.0000 (N40455)    0.0000 (N40487)    0.0000 (N40543)    4.9977     

(N41468)   -3.3426 (N41474)   -3.3558 (N41692)  -29.1000 (N41698)  -28.9410     

(PWM_IN)    4.0556 (VERROR)     .9360 (X_M1.4)   -2.1791 (X_M1.5)   31.3880     

(X_M1.6)   -5.1650 (X_M2.4)  -30.8870 (X_M2.5)   -1.6008 (X_M2.6)  -30.1190     

(X_U7.7)    1.8924 (X_U7.8)  -14.3530 (X_U7.9)  -14.9670 (X_U9.3)    -.0027     

(X_U9.4)   14.4100 (X_U9.5)   14.4100 (X_U9.6)    -.7589 (X_U9.7)    -.7588     

(X_U9.8)   -1.3274 (X_U9.9)     .2527 (VTRIANG)     .7816                       

(X_M1.11)   31.3880                   (X_M1.12)   31.3880                       

(X_M1.22)   -4.6018                   (X_M1.33)   -4.5179                       

(X_M2.11)   -1.6007                   (X_M2.12)   -1.6007                       

(X_M2.22)  -30.6260                   (X_M2.33)  -30.8690                       

(X_U11.3)    -.0026                   (X_U11.4)   14.4100                       

(X_U11.5)   14.4100                   (X_U11.6)    -.7587                       

(X_U11.7)    -.7587                   (X_U11.8)   -1.3272                       

(X_U11.9)    -.0026                   (X_U7.10)     .0332                       

(X_U7.11)     .0332                   (X_U7.21)    1.3860                       

(X_U7.22)    1.2316                   (X_U9.10)   13.1700                       

(X_U9.11)  -13.1700                   (X_U9.14)    -.0030                       

(X_U9.15)-3.002E-09                   (X_U9.31)     .2527                       

(X_U9.32) 252.7E+03                   (X_U9.33)     .2527                       

(X_U9.34) 252.7E+03                   (X_U9.35)     .2527                       

(X_U9.36)     .2527                   (X_U9.40)     .2527                       

(X_U9.41)     .2127                   (X_U9.42)     .2927                       

(X_U9.45)     .2527                   (X_U9.60)    -.4879                       

(X_U9.61)    0.0000                   (X_U9.62)    0.0000                       

(X_U9.98)    0.0000                   (X_U1.DIS)    0.0000                      

(X_U11.10)   13.1700                  (X_U11.11)  -13.1700                      

(X_U11.14)    -.0029                  (X_U11.15)-2.715E-09                      

(X_U11.31)    -.0026                  (X_U11.32)-2574.2000                      

(X_U11.33)    -.0026                  (X_U11.34)-2574.2000                      

(X_U11.35)    -.0026                  (X_U11.36)    -.0026                      

(X_U11.40)    -.0026                  (X_U11.41)    -.0426                      

(X_U11.42)     .0374                  (X_U11.45)    -.0026                      

(X_U11.60)    -.4907                  (X_U11.61)    0.0000                      

(X_U11.62)    0.0000                  (X_U11.98)    0.0000                      

(X_U1.DRVA)    0.0000                 (X_U1.DRVB)    0.0000                     

(X_U1.NO_DT)    0.0000                (X_U1.PWMIN)    1.0000                    

(X_U1.UVLO1)    5.0000                (X_U1.UVLO2)    0.0000                    

(X_U1.INA_OK)    5.0000               (X_U1.INB_OK) 2.500E-09                   

(X_U1.PWMINB)    0.0000               (X_U1.UVLO2B)    5.0000                   

(X_U1.INA_INT)    4.0556              (X_U1.INA_OKD)    5.0000                  

(X_U1.INA_PRE)    5.0000              (X_U1.INB_OKD) 2.500E-09                  

(X_U1.INB_PRE)    0.0000              (X_U1.VCCI_INT)    5.0000                 

(X_U1.DRVA_PASS)    0.0000            (X_U1.DRVB_PASS)    0.0000                

(X_U1.FAULT_INP)    5.0000            (X_U1.N16668890)    8.5000                

(X_U1.N16668898)    8.5000            (X_U1.N16669068)    0.0000                

(X_U1.N16669308)   -2.8780            (X_U1.N16669580)    5.0000                

(X_U1.N16669674)    0.0000            (X_U1.N16669834)    2.7000                

(X_U1.N16669842)    2.5000            (X_U1.N16669858)    5.0000                

(X_U1.N16670120)     .9813            (X_U1.N16670154)    2.0000                

(X_U1.N16670162)     .0333            (X_U1.N16670228)    0.0000                

(X_U1.N16670408)    0.0000            (X_U1.N16670672)    1.0000                

(X_U1.N16670780)    2.4505            (X_U1.N16670790)    0.0000                

(X_U1.N16670816)    4.9977            (X_U1.N16670888)    8.5000                

(X_U1.N16670896)    8.0000            (X_U1.N16671044)   12.0000                

(X_U1.N16671166)    0.0000            (X_U1.N16671236)    0.0000                

(X_U1.N16671468) 8.182E-12            (X_U1.N16671552)    2.0005                

(X_U1.N16671580)    2.0000            (X_U1.N16671640)    5.0000                

(X_U1.N16671702)    5.0000            (X_U1.N16671830)    5.0106                

(X_U1.N16671850)    0.0000            (X_U1.N16672106)    1.0000                

(X_U1.N16672276)    1.8000            (X_U1.N16672306)    1.0000                

(X_U1.N16672528)     .9979            (X_U1.N16672594)    0.0000                

(X_U1.N16672776)  -18.0000            (X_U1.N16672784)  -29.7800                

(X_U1.N16672968)  -29.8330            (X_U1.N16673112) 2.500E-09                

(X_U1.N16673358)    0.0000            (X_U1.N16673432)    1.8000                

(X_U1.N16673492)    1.8000            (X_U1.N16673790)     .0021                

(X_U1.N16698404)    5.0000            (X_U1.N16970878)    -.3419                

(X_U1.N17051744)    4.8912            (X_U1.N17051757)    5.0000                

(X_U1.N17051771)  -25.1090            (X_U1.N17088411)   -2.8570                

(X_U1.N17110019)    5.0000            (X_U1.N17110021)    5.0000                

(X_U1.N17110038)    2.2075            (X_U1.N17127259)   -2.7925                

(X_U1.N17153666)    5.0000            (X_U1.N17167704)  -30.0000                

(X_U1.N17167706)    5.0000            (X_U1.N17196585)    0.0000                

(X_U1.N17198437)    5.0000            (X_U1.N17201974)    5.0000                

(X_U1.N17396123) 706.5E-06            (X_U1.N17407797)    5.0005                

(X_U1.N167201110) 1.268E-24           (X_U1.N167208610)    5.0000               

(X_U1.N167216030)    5.0000           (X_U1.X_U42.YINT)    0.0000               

(X_U1.X_U43.YINT)    5.0000           (X_U1.X_U44.YINT)    5.0000               

(X_U1.X_U54.YINT)    5.0000           (X_U1.X_U61.YINT)    5.0000               

(X_U1.X_U62.YINT)    5.0000           (X_U1.DEAD_THRESH)     .0023              

(X_U1.UVLO1_DELAYED)    5.0000        (X_U1.UVLO2_DELAYED) 9.624E-18            

(X_U1.UVLO2B_DELAYED)    5.0000       

Resuming Simulation with the following settings
ITL4 = 1000
ABSTOL = 1.58e-008

Convergence problem in transient analysis at Time =  8.099E-06
         Time step =  989.4E-18, minimum allowable step size =  1.500E-15

  These supply currents failed to converge:

    I(X_U1.E_E15)             =    48.55nA  \   -27.18nA
    I(V_V1)                   =    7.736mA  \    7.752mA

  These devices failed to converge:
    X_M1.M2   



  Last node voltages tried were:

 NODE   VOLTAGE     NODE   VOLTAGE     NODE   VOLTAGE     NODE   VOLTAGE


(   5V)    5.0000  (   HO)   -2.1416  (   LO)  -29.7840  (   VO)   -2.8258      

(   VS)   -2.0543  (  -5V)   -5.0000  (  15V)   15.0000  (  VCC)   30.0000      

(  VEE)  -30.0000  ( -15V)  -15.0000  (N32061)    -.0031 (N32249)    -.0032     

(N36112)    -.0026 (N36230)    -.0028 (N36267)     .2527 (N37031)    4.1034     

(N40177)     .3962 (N40195)  -17.9100 (N40287)  -18.0000 (N40377)    0.0000     

(N40401)    0.0000 (N40455)    0.0000 (N40487)    0.0000 (N40543)    4.9977     

(N41468)   -2.6134 (N41474)   -2.6275 (N41692)  -29.1040 (N41698)  -28.9520     

(PWM_IN)    4.0576 (VERROR)     .9360 (X_M1.4)   -1.6728 (X_M1.5)   31.5620     

(X_M1.6)   -4.6400 (X_M2.4)  -30.6700 (X_M2.5)   -1.0602 (X_M2.6)  -29.9200     

(X_U7.7)    1.8923 (X_U7.8)  -14.3530 (X_U7.9)  -14.9670 (X_U9.3)    -.0027     

(X_U9.4)   14.4100 (X_U9.5)   14.4100 (X_U9.6)    -.7589 (X_U9.7)    -.7588     

(X_U9.8)   -1.3274 (X_U9.9)     .2527 (VTRIANG)     .7815                       

(X_M1.11)   31.5620                   (X_M1.12)   31.5620                       

(X_M1.22)   -4.0492                   (X_M1.33)   -3.9811                       

(X_M2.11)   -1.0601                   (X_M2.12)   -1.0601                       

(X_M2.22)  -30.3970                   (X_M2.33)  -30.6850                       

(X_U11.3)    -.0026                   (X_U11.4)   14.4100                       

(X_U11.5)   14.4100                   (X_U11.6)    -.7587                       

(X_U11.7)    -.7587                   (X_U11.8)   -1.3272                       

(X_U11.9)    -.0026                   (X_U7.10)     .0332                       

(X_U7.11)     .0332                   (X_U7.21)    1.3860                       

(X_U7.22)    1.2315                   (X_U9.10)   13.1700                       

(X_U9.11)  -13.1700                   (X_U9.14)    -.0030                       

(X_U9.15)-3.002E-09                   (X_U9.31)     .2527                       

(X_U9.32) 252.7E+03                   (X_U9.33)     .2527                       

(X_U9.34) 252.7E+03                   (X_U9.35)     .2527                       

(X_U9.36)     .2527                   (X_U9.40)     .2527                       

(X_U9.41)     .2127                   (X_U9.42)     .2927                       

(X_U9.45)     .2527                   (X_U9.60)    -.4879                       

(X_U9.61)    0.0000                   (X_U9.62)    0.0000                       

(X_U9.98)    0.0000                   (X_U1.DIS)    0.0000                      

(X_U11.10)   13.1700                  (X_U11.11)  -13.1700                      

(X_U11.14)    -.0029                  (X_U11.15)-3.131E-09                      

(X_U11.31)    -.0026                  (X_U11.32)-2574.2000                      

(X_U11.33)    -.0026                  (X_U11.34)-2574.2000                      

(X_U11.35)    -.0026                  (X_U11.36)    -.0026                      

(X_U11.40)    -.0026                  (X_U11.41)    -.0426                      

(X_U11.42)     .0374                  (X_U11.45)    -.0026                      

(X_U11.60)    -.4907                  (X_U11.61)    0.0000                      

(X_U11.62)    0.0000                  (X_U11.98)    0.0000                      

(X_U1.DRVA)    0.0000                 (X_U1.DRVB)    0.0000                     

(X_U1.NO_DT)    0.0000                (X_U1.PWMIN)    1.0000                    

(X_U1.UVLO1)    5.0000                (X_U1.UVLO2)    0.0000                    

(X_U1.INA_OK)    5.0000               (X_U1.INB_OK) 2.500E-09                   

(X_U1.PWMINB)    0.0000               (X_U1.UVLO2B)    5.0000                   

(X_U1.INA_INT)    4.0576              (X_U1.INA_OKD)    5.0000                  

(X_U1.INA_PRE)    5.0000              (X_U1.INB_OKD) 2.500E-09                  

(X_U1.INB_PRE)    0.0000              (X_U1.VCCI_INT)    5.0000                 

(X_U1.DRVA_PASS)    0.0000            (X_U1.DRVB_PASS)    0.0000                

(X_U1.FAULT_INP)    5.0000            (X_U1.N16668890)    8.5000                

(X_U1.N16668898)    8.5000            (X_U1.N16669068)    0.0000                

(X_U1.N16669308)   -2.1416            (X_U1.N16669580)    5.0000                

(X_U1.N16669674)    0.0000            (X_U1.N16669834)    2.7000                

(X_U1.N16669842)    2.5000            (X_U1.N16669858)    5.0000                

(X_U1.N16670120)     .9847            (X_U1.N16670154)    2.0000                

(X_U1.N16670162)     .0328            (X_U1.N16670228)    0.0000                

(X_U1.N16670408)    0.0000            (X_U1.N16670672)    1.0000                

(X_U1.N16670780)    2.4505            (X_U1.N16670790)    0.0000                

(X_U1.N16670816)    4.9977            (X_U1.N16670888)    8.5000                

(X_U1.N16670896)    8.0000            (X_U1.N16671044)   12.0000                

(X_U1.N16671166)    0.0000            (X_U1.N16671236)    0.0000                

(X_U1.N16671468) 7.593E-12            (X_U1.N16671552)    2.0005                

(X_U1.N16671580)    2.0000            (X_U1.N16671640)    5.0000                

(X_U1.N16671702)    5.0000            (X_U1.N16671830)    5.0104                

(X_U1.N16671850)    0.0000            (X_U1.N16672106)    1.0000                

(X_U1.N16672276)    1.8000            (X_U1.N16672306)    1.0000                

(X_U1.N16672528)     .9980            (X_U1.N16672594)    0.0000                

(X_U1.N16672776)  -18.0000            (X_U1.N16672784)  -29.7840                

(X_U1.N16672968)  -29.8360            (X_U1.N16673112) 2.500E-09                

(X_U1.N16673358)    0.0000            (X_U1.N16673432)    1.8000                

(X_U1.N16673492)    1.8000            (X_U1.N16673790)     .0020                

(X_U1.N16698404)    5.0000            (X_U1.N16970878)     .3962                

(X_U1.N17051744)    4.8925            (X_U1.N17051757)    5.0000                

(X_U1.N17051771)  -25.1080            (X_U1.N17088411)   -2.1201                

(X_U1.N17110019)    5.0000            (X_U1.N17110021)    5.0000                

(X_U1.N17110038)    2.9457            (X_U1.N17127259)   -2.0543                

(X_U1.N17153666)    5.0000            (X_U1.N17167704)  -30.0000                

(X_U1.N17167706)    5.0000            (X_U1.N17196585)    0.0000                

(X_U1.N17198437)    5.0000            (X_U1.N17201974)    5.0000                

(X_U1.N17396123) 688.4E-06            (X_U1.N17407797)    5.0005                

(X_U1.N167201110) 1.268E-24           (X_U1.N167208610)    5.0000               

(X_U1.N167216030)    5.0000           (X_U1.X_U42.YINT)    0.0000               

(X_U1.X_U43.YINT)    5.0000           (X_U1.X_U44.YINT)    5.0000               

(X_U1.X_U54.YINT)    5.0000           (X_U1.X_U61.YINT)    5.0000               

(X_U1.X_U62.YINT)    5.0000           (X_U1.DEAD_THRESH)     .0023              

(X_U1.UVLO1_DELAYED)    5.0000        (X_U1.UVLO2_DELAYED) 9.624E-18            

(X_U1.UVLO2B_DELAYED)    5.0000       

Resuming Simulation with the following settings
ITL4 = 1000
ABSTOL = 1e-006

Convergence problem in transient analysis at Time =  8.099E-06
         Time step =  989.4E-18, minimum allowable step size =  1.500E-15

  These voltages failed to converge:

    V(X_M1.22)                =    -3.944V  \    -3.953V
    V(X_M1.33)                =    -3.880V  \    -3.889V
    V(X_M1.6)                 =    -4.542V  \    -4.552V
    V(X_M1.4)                 =    -1.581V  \    -1.590V
    V(X_M2.11)                =    -1.019V  \  -966.81mV
    V(X_M2.22)                =    -30.44V  \    -30.39V
    V(X_M2.33)                =    -30.74V  \    -30.69V
    V(X_M2.6)                 =    -29.97V  \    -29.92V
    V(X_M2.4)                 =    -30.72V  \    -30.66V
    V(X_M2.5)                 =    -1.019V  \  -966.91mV
    V(X_M2.12)                =    -1.019V  \  -966.81mV

  These supply currents failed to converge:

    I(V_V1)                   =    4.273mA  \    4.456mA

  These devices failed to converge:
    X_M1.M2   



  Last node voltages tried were:

 NODE   VOLTAGE     NODE   VOLTAGE     NODE   VOLTAGE     NODE   VOLTAGE


(   5V)    5.0000  (   HO)   -2.0516  (   LO)  -29.7860  (   VO)   -2.8258      

(   VS)   -1.9638  (  -5V)   -5.0000  (  15V)   15.0000  (  VCC)   30.0000      

(  VEE)  -30.0000  ( -15V)  -15.0000  (N32061)    -.0031 (N32249)    -.0032     

(N36112)    -.0026 (N36230)    -.0028 (N36267)     .2527 (N37031)    4.1039     

(N40177)     .4867 (N40195)  -17.9440 (N40287)  -18.0000 (N40377)    0.0000     

(N40401)    0.0000 (N40455)    0.0000 (N40487)    0.0000 (N40543)    4.9977     

(N41468)   -2.5255 (N41474)   -2.5399 (N41692)  -29.1050 (N41698)  -28.9550     

(PWM_IN)    4.0582 (VERROR)     .9360 (X_M1.4)   -1.5805 (X_M1.5)   31.5600     

(X_M1.6)   -4.5424 (X_M2.4)  -30.7150 (X_M2.5)   -1.0191 (X_M2.6)  -29.9690     

(X_U7.7)    1.8922 (X_U7.8)  -14.3530 (X_U7.9)  -14.9670 (X_U9.3)    -.0027     

(X_U9.4)   14.4100 (X_U9.5)   14.4100 (X_U9.6)    -.7589 (X_U9.7)    -.7588     

(X_U9.8)   -1.3274 (X_U9.9)     .2527 (VTRIANG)     .7815                       

(X_M1.11)   31.5600                   (X_M1.12)   31.5600                       

(X_M1.22)   -3.9438                   (X_M1.33)   -3.8800                       

(X_M2.11)   -1.0190                   (X_M2.12)   -1.0190                       

(X_M2.22)  -30.4380                   (X_M2.33)  -30.7380                       

(X_U11.3)    -.0026                   (X_U11.4)   14.4100                       

(X_U11.5)   14.4100                   (X_U11.6)    -.7587                       

(X_U11.7)    -.7587                   (X_U11.8)   -1.3272                       

(X_U11.9)    -.0026                   (X_U7.10)     .0331                       

(X_U7.11)     .0331                   (X_U7.21)    1.3860                       

(X_U7.22)    1.2315                   (X_U9.10)   13.1700                       

(X_U9.11)  -13.1700                   (X_U9.14)    -.0030                       

(X_U9.15)-3.002E-09                   (X_U9.31)     .2527                       

(X_U9.32) 252.7E+03                   (X_U9.33)     .2527                       

(X_U9.34) 252.7E+03                   (X_U9.35)     .2527                       

(X_U9.36)     .2527                   (X_U9.40)     .2527                       

(X_U9.41)     .2127                   (X_U9.42)     .2927                       

(X_U9.45)     .2527                   (X_U9.60)    -.4879                       

(X_U9.61)    0.0000                   (X_U9.62)    0.0000                       

(X_U9.98)    0.0000                   (X_U1.DIS)    0.0000                      

(X_U11.10)   13.1700                  (X_U11.11)  -13.1700                      

(X_U11.14)    -.0029                  (X_U11.15) 126.1E-12                      

(X_U11.31)    -.0026                  (X_U11.32)-2574.2000                      

(X_U11.33)    -.0026                  (X_U11.34)-2574.2000                      

(X_U11.35)    -.0026                  (X_U11.36)    -.0026                      

(X_U11.40)    -.0026                  (X_U11.41)    -.0426                      

(X_U11.42)     .0374                  (X_U11.45)    -.0026                      

(X_U11.60)    -.4907                  (X_U11.61)    0.0000                      

(X_U11.62)    0.0000                  (X_U11.98)    0.0000                      

(X_U1.DRVA)    0.0000                 (X_U1.DRVB)    0.0000                     

(X_U1.NO_DT)    0.0000                (X_U1.PWMIN)    1.0000                    

(X_U1.UVLO1)    5.0000                (X_U1.UVLO2)    0.0000                    

(X_U1.INA_OK)    5.0000               (X_U1.INB_OK) 2.500E-09                   

(X_U1.PWMINB)    0.0000               (X_U1.UVLO2B)    5.0000                   

(X_U1.INA_INT)    4.0582              (X_U1.INA_OKD)    5.0000                  

(X_U1.INA_PRE)    5.0000              (X_U1.INB_OKD) 2.500E-09                  

(X_U1.INB_PRE)    0.0000              (X_U1.VCCI_INT)    5.0000                 

(X_U1.DRVA_PASS)    0.0000            (X_U1.DRVB_PASS)    0.0000                

(X_U1.FAULT_INP)    5.0000            (X_U1.N16668890)    8.5000                

(X_U1.N16668898)    8.5000            (X_U1.N16669068)    0.0000                

(X_U1.N16669308)   -2.0516            (X_U1.N16669580)    5.0000                

(X_U1.N16669674)    0.0000            (X_U1.N16669834)    2.7000                

(X_U1.N16669842)    2.5000            (X_U1.N16669858)    5.0000                

(X_U1.N16670120)     .9857            (X_U1.N16670154)    2.0000                

(X_U1.N16670162)     .0327            (X_U1.N16670228)    0.0000                

(X_U1.N16670408)    0.0000            (X_U1.N16670672)    1.0000                

(X_U1.N16670780)    2.4505            (X_U1.N16670790)    0.0000                

(X_U1.N16670816)    4.9977            (X_U1.N16670888)    8.5000                

(X_U1.N16670896)    8.0000            (X_U1.N16671044)   12.0000                

(X_U1.N16671166)    0.0000            (X_U1.N16671236)    0.0000                

(X_U1.N16671468) 7.438E-12            (X_U1.N16671552)    2.0005                

(X_U1.N16671580)    2.0000            (X_U1.N16671640)    5.0000                

(X_U1.N16671702)    5.0000            (X_U1.N16671830)    5.0104                

(X_U1.N16671850)    0.0000            (X_U1.N16672106)    1.0000                

(X_U1.N16672276)    1.8000            (X_U1.N16672306)    1.0000                

(X_U1.N16672528)     .9980            (X_U1.N16672594)    0.0000                

(X_U1.N16672776)  -18.0000            (X_U1.N16672784)  -29.7860                

(X_U1.N16672968)  -29.8370            (X_U1.N16673112) 2.500E-09                

(X_U1.N16673358)    0.0000            (X_U1.N16673432)    1.8000                

(X_U1.N16673492)    1.8000            (X_U1.N16673790)     .0020                

(X_U1.N16698404)    5.0000            (X_U1.N16970878)     .4867                

(X_U1.N17051744)    4.8928            (X_U1.N17051757)    5.0000                

(X_U1.N17051771)  -25.1070            (X_U1.N17088411)   -2.0300                

(X_U1.N17110019)    5.0000            (X_U1.N17110021)    5.0000                

(X_U1.N17110038)    3.0362            (X_U1.N17127259)   -1.9638                

(X_U1.N17153666)    5.0000            (X_U1.N17167704)  -30.0000                

(X_U1.N17167706)    5.0000            (X_U1.N17196585)    0.0000                

(X_U1.N17198437)    5.0000            (X_U1.N17201974)    5.0000                

(X_U1.N17396123) 683.5E-06            (X_U1.N17407797)    5.0005                

(X_U1.N167201110) 1.268E-24           (X_U1.N167208610)    5.0000               

(X_U1.N167216030)    5.0000           (X_U1.X_U42.YINT)    0.0000               

(X_U1.X_U43.YINT)    5.0000           (X_U1.X_U44.YINT)    5.0000               

(X_U1.X_U54.YINT)    5.0000           (X_U1.X_U61.YINT)    5.0000               

(X_U1.X_U62.YINT)    5.0000           (X_U1.DEAD_THRESH)     .0023              

(X_U1.UVLO1_DELAYED)    5.0000        (X_U1.UVLO2_DELAYED) 9.624E-18            

(X_U1.UVLO2B_DELAYED)    5.0000       

Resuming Simulation with the following settings
ITL4 = 1000
RELTOL = 0.0086

Convergence problem in transient analysis at Time =  8.099E-06
         Time step =  989.4E-18, minimum allowable step size =  1.500E-15

  These voltages failed to converge:

    V(X_M1.4)                 =  -942.38mV  \  -922.62mV
    V(X_M2.11)                =  -509.76mV  \  -439.22mV
    V(X_M2.5)                 =  -509.86mV  \  -439.32mV
    V(X_M2.12)                =  -509.76mV  \  -439.22mV

  These supply currents failed to converge:

    I(V_V1)                   =    7.080mA  \    7.263mA

  These devices failed to converge:
    X_M1.M2   



  Last node voltages tried were:

 NODE   VOLTAGE     NODE   VOLTAGE     NODE   VOLTAGE     NODE   VOLTAGE


(   5V)    5.0000  (   HO)   -1.8770  (   LO)  -29.8000  (   VO)   -2.8262      

(   VS)   -1.7828  (  -5V)   -5.0000  (  15V)   15.0000  (  VCC)   30.0000      

(  VEE)  -30.0000  ( -15V)  -15.0000  (N32061)    -.0031 (N32249)    -.0032     

(N36112)    -.0026 (N36230)    -.0028 (N36267)     .2527 (N37031)    4.1099     

(N40177)     .6677 (N40195)  -17.9150 (N40287)  -18.0000 (N40377)    0.0000     

(N40401)    0.0000 (N40455)    0.0000 (N40487)    0.0000 (N40543)    4.9977     

(N41468)   -2.3779 (N41474)   -2.3954 (N41692)  -29.1210 (N41698)  -28.9920     

(PWM_IN)    4.0645 (VERROR)     .9360 (X_M1.4)    -.9424 (X_M1.5)   30.9690     

(X_M1.6)   -3.8354 (X_M2.4)  -31.1070 (X_M2.5)    -.5099 (X_M2.6)  -30.4130     

(X_U7.7)    1.8920 (X_U7.8)  -14.3530 (X_U7.9)  -14.9670 (X_U9.3)    -.0027     

(X_U9.4)   14.4100 (X_U9.5)   14.4100 (X_U9.6)    -.7589 (X_U9.7)    -.7588     

(X_U9.8)   -1.3274 (X_U9.9)     .2527 (VTRIANG)     .7812                       

(X_M1.11)   30.9690                   (X_M1.12)   30.9690                       

(X_M1.22)   -3.1714                   (X_M1.33)   -3.1258                       

(X_M2.11)    -.5098                   (X_M2.12)    -.5098                       

(X_M2.22)  -30.7750                   (X_M2.33)  -31.2230                       

(X_U11.3)    -.0026                   (X_U11.4)   14.4100                       

(X_U11.5)   14.4100                   (X_U11.6)    -.7587                       

(X_U11.7)    -.7587                   (X_U11.8)   -1.3272                       

(X_U11.9)    -.0026                   (X_U7.10)     .0332                       

(X_U7.11)     .0332                   (X_U7.21)    1.3860                       

(X_U7.22)    1.2312                   (X_U9.10)   13.1700                       

(X_U9.11)  -13.1700                   (X_U9.14)    -.0030                       

(X_U9.15)-2.998E-09                   (X_U9.31)     .2527                       

(X_U9.32) 252.7E+03                   (X_U9.33)     .2527                       

(X_U9.34) 252.7E+03                   (X_U9.35)     .2527                       

(X_U9.36)     .2527                   (X_U9.40)     .2527                       

(X_U9.41)     .2127                   (X_U9.42)     .2927                       

(X_U9.45)     .2527                   (X_U9.60)    -.4879                       

(X_U9.61)    0.0000                   (X_U9.62)    0.0000                       

(X_U9.98)    0.0000                   (X_U1.DIS)    0.0000                      

(X_U11.10)   13.1700                  (X_U11.11)  -13.1700                      

(X_U11.14)    -.0029                  (X_U11.15) 146.0E-12                      

(X_U11.31)    -.0026                  (X_U11.32)-2574.2000                      

(X_U11.33)    -.0026                  (X_U11.34)-2574.2000                      

(X_U11.35)    -.0026                  (X_U11.36)    -.0026                      

(X_U11.40)    -.0026                  (X_U11.41)    -.0426                      

(X_U11.42)     .0374                  (X_U11.45)    -.0026                      

(X_U11.60)    -.4907                  (X_U11.61)    0.0000                      

(X_U11.62)    0.0000                  (X_U11.98)    0.0000                      

(X_U1.DRVA)    0.0000                 (X_U1.DRVB)    0.0000                     

(X_U1.NO_DT)    0.0000                (X_U1.PWMIN)    1.0000                    

(X_U1.UVLO1)    5.0000                (X_U1.UVLO2)    0.0000                    

(X_U1.INA_OK)    5.0000               (X_U1.INB_OK) 2.500E-09                   

(X_U1.PWMINB)    0.0000               (X_U1.UVLO2B)    5.0000                   

(X_U1.INA_INT)    4.0645              (X_U1.INA_OKD)    5.0000                  

(X_U1.INA_PRE)    5.0000              (X_U1.INB_OKD) 2.500E-09                  

(X_U1.INB_PRE)    0.0000              (X_U1.VCCI_INT)    5.0000                 

(X_U1.DRVA_PASS)    0.0000            (X_U1.DRVB_PASS)    0.0000                

(X_U1.FAULT_INP)    5.0000            (X_U1.N16668890)    8.5000                

(X_U1.N16668898)    8.5000            (X_U1.N16669068)    0.0000                

(X_U1.N16669308)   -1.8770            (X_U1.N16669580)    5.0000                

(X_U1.N16669674)    0.0000            (X_U1.N16669834)    2.7000                

(X_U1.N16669842)    2.5000            (X_U1.N16669858)    5.0000                

(X_U1.N16670120)     .9966            (X_U1.N16670154)    2.0000                

(X_U1.N16670162)     .0312            (X_U1.N16670228)    0.0000                

(X_U1.N16670408)    0.0000            (X_U1.N16670672)    1.0000                

(X_U1.N16670780)    2.4505            (X_U1.N16670790)    0.0000                

(X_U1.N16670816)    4.9977            (X_U1.N16670888)    8.5000                

(X_U1.N16670896)    8.0000            (X_U1.N16671044)   12.0000                

(X_U1.N16671166)    0.0000            (X_U1.N16671236)    0.0000                

(X_U1.N16671468) 5.845E-12            (X_U1.N16671552)    2.0005                

(X_U1.N16671580)    2.0000            (X_U1.N16671640)    5.0000                

(X_U1.N16671702)    5.0000            (X_U1.N16671830)    5.0099                

(X_U1.N16671850)    0.0000            (X_U1.N16672106)    1.0000                

(X_U1.N16672276)    1.8000            (X_U1.N16672306)    1.0000                

(X_U1.N16672528)     .9980            (X_U1.N16672594)    0.0000                

(X_U1.N16672776)  -18.0000            (X_U1.N16672784)  -29.8000                

(X_U1.N16672968)  -29.8480            (X_U1.N16673112) 2.500E-09                

(X_U1.N16673358)    0.0000            (X_U1.N16673432)    1.8000                

(X_U1.N16673492)    1.8000            (X_U1.N16673790)     .0020                

(X_U1.N16698404)    5.0000            (X_U1.N16970878)     .6677                

(X_U1.N17051744)    4.8966            (X_U1.N17051757)    5.0000                

(X_U1.N17051771)  -25.1030            (X_U1.N17088411)   -1.8538                

(X_U1.N17110019)    5.0000            (X_U1.N17110021)    5.0000                

(X_U1.N17110038)    3.2172            (X_U1.N17127259)   -1.7828                

(X_U1.N17153666)    5.0000            (X_U1.N17167704)  -30.0000                

(X_U1.N17167706)    5.0000            (X_U1.N17196585)    0.0000                

(X_U1.N17198437)    5.0000            (X_U1.N17201974)    5.0000                

(X_U1.N17396123) 628.7E-06            (X_U1.N17407797)    5.0004                

(X_U1.N167201110) 1.268E-24           (X_U1.N167208610)    5.0000               

(X_U1.N167216030)    5.0000           (X_U1.X_U42.YINT)    0.0000               

(X_U1.X_U43.YINT)    5.0000           (X_U1.X_U44.YINT)    5.0000               

(X_U1.X_U54.YINT)    5.0000           (X_U1.X_U61.YINT)    5.0000               

(X_U1.X_U62.YINT)    5.0000           (X_U1.DEAD_THRESH)     .0023              

(X_U1.UVLO1_DELAYED)    5.0000        (X_U1.UVLO2_DELAYED) 9.624E-18            

(X_U1.UVLO2B_DELAYED)    5.0000       

Resuming Simulation with the following settings
ITL4 = 1000
RELTOL = 0.05

Convergence problem in transient analysis at Time =  8.099E-06
         Time step =  194.8E-18, minimum allowable step size =  1.500E-15

  These voltages failed to converge:

    V(X_M2.11)                =   -48.94mV  \   -52.46mV
    V(X_M2.5)                 =   -49.04mV  \   -52.56mV
    V(X_M2.12)                =   -48.94mV  \   -52.46mV

  These devices failed to converge:
    X_M1.M2   



  Last node voltages tried were:

 NODE   VOLTAGE     NODE   VOLTAGE     NODE   VOLTAGE     NODE   VOLTAGE


(   5V)    5.0000  (   HO)   -1.2973  (   LO)  -29.8050  (   VO)   -2.8263      

(   VS)   -1.2014  (  -5V)   -5.0000  (  15V)   15.0000  (  VCC)   30.0000      

(  VEE)  -30.0000  ( -15V)  -15.0000  (N32061)    -.0031 (N32249)    -.0032     

(N36112)    -.0026 (N36230)    -.0028 (N36267)     .2527 (N37031)    4.1114     

(N40177)    1.2491 (N40195)  -17.8800 (N40287)  -18.0000 (N40377)    0.0000     

(N40401)    0.0000 (N40455)    0.0000 (N40487)    0.0000 (N40543)    4.9977     

(N41468)   -1.8055 (N41474)   -1.8238 (N41692)  -29.1250 (N41698)  -29.0030     

(PWM_IN)    4.0661 (VERROR)     .9360 (X_M1.4)    -.4988 (X_M1.5)   31.0800     

(X_M1.6)   -3.3732 (X_M2.4)  -30.8350 (X_M2.5)    -.0490 (X_M2.6)  -30.1520     

(X_U7.7)    1.8918 (X_U7.8)  -14.3530 (X_U7.9)  -14.9670 (X_U9.3)    -.0027     

(X_U9.4)   14.4100 (X_U9.5)   14.4100 (X_U9.6)    -.7589 (X_U9.7)    -.7588     

(X_U9.8)   -1.3274 (X_U9.9)     .2527 (VTRIANG)     .7811                       

(X_M1.11)   31.0800                   (X_M1.12)   31.0800                       

(X_M1.22)   -2.6961                   (X_M1.33)   -2.6484                       

(X_M2.11)    -.0489                   (X_M2.12)    -.0489                       

(X_M2.22)  -30.4890                   (X_M2.33)  -30.9720                       

(X_U11.3)    -.0026                   (X_U11.4)   14.4100                       

(X_U11.5)   14.4100                   (X_U11.6)    -.7587                       

(X_U11.7)    -.7587                   (X_U11.8)   -1.3272                       

(X_U11.9)    -.0026                   (X_U7.10)     .0332                       

(X_U7.11)     .0332                   (X_U7.21)    1.3860                       

(X_U7.22)    1.2311                   (X_U9.10)   13.1700                       

(X_U9.11)  -13.1700                   (X_U9.14)    -.0030                       

(X_U9.15)-2.998E-09                   (X_U9.31)     .2527                       

(X_U9.32) 252.7E+03                   (X_U9.33)     .2527                       

(X_U9.34) 252.7E+03                   (X_U9.35)     .2527                       

(X_U9.36)     .2527                   (X_U9.40)     .2527                       

(X_U9.41)     .2127                   (X_U9.42)     .2927                       

(X_U9.45)     .2527                   (X_U9.60)    -.4879                       

(X_U9.61)    0.0000                   (X_U9.62)    0.0000                       

(X_U9.98)    0.0000                   (X_U1.DIS)    0.0000                      

(X_U11.10)   13.1700                  (X_U11.11)  -13.1700                      

(X_U11.14)    -.0029                  (X_U11.15)-2.727E-09                      

(X_U11.31)    -.0026                  (X_U11.32)-2574.2000                      

(X_U11.33)    -.0026                  (X_U11.34)-2574.2000                      

(X_U11.35)    -.0026                  (X_U11.36)    -.0026                      

(X_U11.40)    -.0026                  (X_U11.41)    -.0426                      

(X_U11.42)     .0374                  (X_U11.45)    -.0026                      

(X_U11.60)    -.4907                  (X_U11.61)    0.0000                      

(X_U11.62)    0.0000                  (X_U11.98)    0.0000                      

(X_U1.DRVA)    0.0000                 (X_U1.DRVB)    0.0000                     

(X_U1.NO_DT)    0.0000                (X_U1.PWMIN)    1.0000                    

(X_U1.UVLO1)    5.0000                (X_U1.UVLO2)    0.0000                    

(X_U1.INA_OK)    5.0000               (X_U1.INB_OK) 2.500E-09                   

(X_U1.PWMINB)    0.0000               (X_U1.UVLO2B)    5.0000                   

(X_U1.INA_INT)    4.0661              (X_U1.INA_OKD)    5.0000                  

(X_U1.INA_PRE)    5.0000              (X_U1.INB_OKD) 2.500E-09                  

(X_U1.INB_PRE)    0.0000              (X_U1.VCCI_INT)    5.0000                 

(X_U1.DRVA_PASS)    0.0000            (X_U1.DRVB_PASS)    0.0000                

(X_U1.FAULT_INP)    5.0000            (X_U1.N16668890)    8.5000                

(X_U1.N16668898)    8.5000            (X_U1.N16669068)    0.0000                

(X_U1.N16669308)   -1.2973            (X_U1.N16669580)    5.0000                

(X_U1.N16669674)    0.0000            (X_U1.N16669834)    2.7000                

(X_U1.N16669842)    2.5000            (X_U1.N16669858)    5.0000                

(X_U1.N16670120)     .9993            (X_U1.N16670154)    2.0000                

(X_U1.N16670162)     .0308            (X_U1.N16670228)    0.0000                

(X_U1.N16670408)    0.0000            (X_U1.N16670672)    1.0000                

(X_U1.N16670780)    2.4505            (X_U1.N16670790)    0.0000                

(X_U1.N16670816)    4.9977            (X_U1.N16670888)    8.5000                

(X_U1.N16670896)    8.0000            (X_U1.N16671044)   12.0000                

(X_U1.N16671166)    0.0000            (X_U1.N16671236)    0.0000                

(X_U1.N16671468) 5.506E-12            (X_U1.N16671552)    2.0005                

(X_U1.N16671580)    2.0000            (X_U1.N16671640)    5.0000                

(X_U1.N16671702)    5.0000            (X_U1.N16671830)    5.0098                

(X_U1.N16671850)    0.0000            (X_U1.N16672106)    1.0000                

(X_U1.N16672276)    1.8000            (X_U1.N16672306)    1.0000                

(X_U1.N16672528)     .9981            (X_U1.N16672594)    0.0000                

(X_U1.N16672776)  -18.0000            (X_U1.N16672784)  -29.8050                

(X_U1.N16672968)  -29.8510            (X_U1.N16673112) 2.500E-09                

(X_U1.N16673358)    0.0000            (X_U1.N16673432)    1.8000                

(X_U1.N16673492)    1.8000            (X_U1.N16673790)     .0019                

(X_U1.N16698404)    5.0000            (X_U1.N16970878)    1.2491                

(X_U1.N17051744)    4.8976            (X_U1.N17051757)    5.0000                

(X_U1.N17051771)  -25.1020            (X_U1.N17088411)   -1.2737                

(X_U1.N17110019)    5.0000            (X_U1.N17110021)    5.0000                

(X_U1.N17110038)    3.7986            (X_U1.N17127259)   -1.2014                

(X_U1.N17153666)    5.0000            (X_U1.N17167704)  -30.0000                

(X_U1.N17167706)    5.0000            (X_U1.N17196585)    0.0000                

(X_U1.N17198437)    5.0000            (X_U1.N17201974)    5.0000                

(X_U1.N17396123) 615.8E-06            (X_U1.N17407797)    5.0004                

(X_U1.N167201110) 1.268E-24           (X_U1.N167208610)    5.0000               

(X_U1.N167216030)    5.0000           (X_U1.X_U42.YINT)    0.0000               

(X_U1.X_U43.YINT)    5.0000           (X_U1.X_U44.YINT)    5.0000               

(X_U1.X_U54.YINT)    5.0000           (X_U1.X_U61.YINT)    5.0000               

(X_U1.X_U62.YINT)    5.0000           (X_U1.DEAD_THRESH)     .0023              

(X_U1.UVLO1_DELAYED)    5.0000        (X_U1.UVLO2_DELAYED) 9.624E-18            

(X_U1.UVLO2B_DELAYED)    5.0000       

Resuming Simulation with the following settings
ITL4 = 1000

Convergence problem in transient analysis at Time =  8.099E-06
         Time step =  194.8E-18, minimum allowable step size =  1.500E-15

  These voltages failed to converge:

    V(X_M2.11)                =   -48.94mV  \   -52.46mV
    V(X_M2.5)                 =   -49.04mV  \   -52.56mV
    V(X_M2.12)                =   -48.94mV  \   -52.46mV

  These devices failed to converge:
    X_M1.M2   



  Last node voltages tried were:

 NODE   VOLTAGE     NODE   VOLTAGE     NODE   VOLTAGE     NODE   VOLTAGE


(   5V)    5.0000  (   HO)   -1.2973  (   LO)  -29.8050  (   VO)   -2.8263      

(   VS)   -1.2014  (  -5V)   -5.0000  (  15V)   15.0000  (  VCC)   30.0000      

(  VEE)  -30.0000  ( -15V)  -15.0000  (N32061)    -.0031 (N32249)    -.0032     

(N36112)    -.0026 (N36230)    -.0028 (N36267)     .2527 (N37031)    4.1114     

(N40177)    1.2491 (N40195)  -17.8800 (N40287)  -18.0000 (N40377)    0.0000     

(N40401)    0.0000 (N40455)    0.0000 (N40487)    0.0000 (N40543)    4.9977     

(N41468)   -1.8055 (N41474)   -1.8238 (N41692)  -29.1250 (N41698)  -29.0030     

(PWM_IN)    4.0661 (VERROR)     .9360 (X_M1.4)    -.4988 (X_M1.5)   31.0800     

(X_M1.6)   -3.3732 (X_M2.4)  -30.8350 (X_M2.5)    -.0490 (X_M2.6)  -30.1520     

(X_U7.7)    1.8918 (X_U7.8)  -14.3530 (X_U7.9)  -14.9670 (X_U9.3)    -.0027     

(X_U9.4)   14.4100 (X_U9.5)   14.4100 (X_U9.6)    -.7589 (X_U9.7)    -.7588     

(X_U9.8)   -1.3274 (X_U9.9)     .2527 (VTRIANG)     .7811                       

(X_M1.11)   31.0800                   (X_M1.12)   31.0800                       

(X_M1.22)   -2.6961                   (X_M1.33)   -2.6484                       

(X_M2.11)    -.0489                   (X_M2.12)    -.0489                       

(X_M2.22)  -30.4890                   (X_M2.33)  -30.9720                       

(X_U11.3)    -.0026                   (X_U11.4)   14.4100                       

(X_U11.5)   14.4100                   (X_U11.6)    -.7587                       

(X_U11.7)    -.7587                   (X_U11.8)   -1.3272                       

(X_U11.9)    -.0026                   (X_U7.10)     .0332                       

(X_U7.11)     .0332                   (X_U7.21)    1.3860                       

(X_U7.22)    1.2311                   (X_U9.10)   13.1700                       

(X_U9.11)  -13.1700                   (X_U9.14)    -.0030                       

(X_U9.15)-2.998E-09                   (X_U9.31)     .2527                       

(X_U9.32) 252.7E+03                   (X_U9.33)     .2527                       

(X_U9.34) 252.7E+03                   (X_U9.35)     .2527                       

(X_U9.36)     .2527                   (X_U9.40)     .2527                       

(X_U9.41)     .2127                   (X_U9.42)     .2927                       

(X_U9.45)     .2527                   (X_U9.60)    -.4879                       

(X_U9.61)    0.0000                   (X_U9.62)    0.0000                       

(X_U9.98)    0.0000                   (X_U1.DIS)    0.0000                      

(X_U11.10)   13.1700                  (X_U11.11)  -13.1700                      

(X_U11.14)    -.0029                  (X_U11.15)-2.727E-09                      

(X_U11.31)    -.0026                  (X_U11.32)-2574.2000                      

(X_U11.33)    -.0026                  (X_U11.34)-2574.2000                      

(X_U11.35)    -.0026                  (X_U11.36)    -.0026                      

(X_U11.40)    -.0026                  (X_U11.41)    -.0426                      

(X_U11.42)     .0374                  (X_U11.45)    -.0026                      

(X_U11.60)    -.4907                  (X_U11.61)    0.0000                      

(X_U11.62)    0.0000                  (X_U11.98)    0.0000                      

(X_U1.DRVA)    0.0000                 (X_U1.DRVB)    0.0000                     

(X_U1.NO_DT)    0.0000                (X_U1.PWMIN)    1.0000                    

(X_U1.UVLO1)    5.0000                (X_U1.UVLO2)    0.0000                    

(X_U1.INA_OK)    5.0000               (X_U1.INB_OK) 2.500E-09                   

(X_U1.PWMINB)    0.0000               (X_U1.UVLO2B)    5.0000                   

(X_U1.INA_INT)    4.0661              (X_U1.INA_OKD)    5.0000                  

(X_U1.INA_PRE)    5.0000              (X_U1.INB_OKD) 2.500E-09                  

(X_U1.INB_PRE)    0.0000              (X_U1.VCCI_INT)    5.0000                 

(X_U1.DRVA_PASS)    0.0000            (X_U1.DRVB_PASS)    0.0000                

(X_U1.FAULT_INP)    5.0000            (X_U1.N16668890)    8.5000                

(X_U1.N16668898)    8.5000            (X_U1.N16669068)    0.0000                

(X_U1.N16669308)   -1.2973            (X_U1.N16669580)    5.0000                

(X_U1.N16669674)    0.0000            (X_U1.N16669834)    2.7000                

(X_U1.N16669842)    2.5000            (X_U1.N16669858)    5.0000                

(X_U1.N16670120)     .9993            (X_U1.N16670154)    2.0000                

(X_U1.N16670162)     .0308            (X_U1.N16670228)    0.0000                

(X_U1.N16670408)    0.0000            (X_U1.N16670672)    1.0000                

(X_U1.N16670780)    2.4505            (X_U1.N16670790)    0.0000                

(X_U1.N16670816)    4.9977            (X_U1.N16670888)    8.5000                

(X_U1.N16670896)    8.0000            (X_U1.N16671044)   12.0000                

(X_U1.N16671166)    0.0000            (X_U1.N16671236)    0.0000                

(X_U1.N16671468) 5.506E-12            (X_U1.N16671552)    2.0005                

(X_U1.N16671580)    2.0000            (X_U1.N16671640)    5.0000                

(X_U1.N16671702)    5.0000            (X_U1.N16671830)    5.0098                

(X_U1.N16671850)    0.0000            (X_U1.N16672106)    1.0000                

(X_U1.N16672276)    1.8000            (X_U1.N16672306)    1.0000                

(X_U1.N16672528)     .9981            (X_U1.N16672594)    0.0000                

(X_U1.N16672776)  -18.0000            (X_U1.N16672784)  -29.8050                

(X_U1.N16672968)  -29.8510            (X_U1.N16673112) 2.500E-09                

(X_U1.N16673358)    0.0000            (X_U1.N16673432)    1.8000                

(X_U1.N16673492)    1.8000            (X_U1.N16673790)     .0019                

(X_U1.N16698404)    5.0000            (X_U1.N16970878)    1.2491                

(X_U1.N17051744)    4.8976            (X_U1.N17051757)    5.0000                

[...]

(X_U1.N16671468) 490.8E-12            (X_U1.N16671552)    2.0005                

(X_U1.N16671580)    2.0000            (X_U1.N16671640)    5.0000                

(X_U1.N16671702)    5.0000            (X_U1.N16671830)    5.0900                

(X_U1.N16671850)    0.0000            (X_U1.N16672106)    1.0000                

(X_U1.N16672276)    1.8000            (X_U1.N16672306)    1.0000                

(X_U1.N16672528)     .9969            (X_U1.N16672594)    0.0000                

(X_U1.N16672776)  -18.0000            (X_U1.N16672784)  -29.6650                

(X_U1.N16672968)  -29.7430            (X_U1.N16673112) 2.500E-09                

(X_U1.N16673358)    0.0000            (X_U1.N16673432)    1.8000                

(X_U1.N16673492)    1.8000            (X_U1.N16673790)     .0031                

(X_U1.N16698404)    5.0000            (X_U1.N16970878)   14.8850                

(X_U1.N17051744)    4.8048            (X_U1.N17051757)    5.0000                

(X_U1.N17051771)  -25.1950            (X_U1.N17088411)   13.1200                

(X_U1.N17110019)    5.0000            (X_U1.N17110021)    5.0000                

(X_U1.N17110038)   18.2080            (X_U1.N17127259)   13.2080                

(X_U1.N17153666)    5.0000            (X_U1.N17167704)  -30.0000                

(X_U1.N17167706)    5.0000            (X_U1.N17196585)    0.0000                

(X_U1.N17198437)    5.0000            (X_U1.N17201974)    5.0000                

(X_U1.N17396123) 513.6E-06            (X_U1.N17407797)    5.0108                

(X_U1.N167201110) 1.352E-24           (X_U1.N167208610)    5.0000               

(X_U1.N167216030)    5.0000           (X_U1.X_U42.YINT)    0.0000               

(X_U1.X_U43.YINT)    5.0000           (X_U1.X_U44.YINT)    5.0000               

(X_U1.X_U54.YINT)    5.0000           (X_U1.X_U61.YINT)    5.0000               

(X_U1.X_U62.YINT)    5.0000           (X_U1.DEAD_THRESH)     .0023              

(X_U1.UVLO1_DELAYED)    5.0000        (X_U1.UVLO2_DELAYED) 10.26E-18            

(X_U1.UVLO2B_DELAYED)    5.0000       

Resuming Simulation with the following settings
RELTOL = 0.05

Time step =  835.6E-18 is too small in Transient Analysis at
Time =  3.491E-06.  Minimum allowable step size =  1.500E-15.
         The device which is changing too fast is X_M1.M2.



  Last node voltages tried were:

 NODE   VOLTAGE     NODE   VOLTAGE     NODE   VOLTAGE     NODE   VOLTAGE


(   5V)    5.0000  (   HO)   13.0910  (   LO)  -29.6650  (   VO)   -4.0571      

(   VS)   13.2080  (  -5V)   -5.0000  (  15V)   15.0000  (  VCC)   30.0000      

(  VEE)  -30.0000  ( -15V)  -15.0000  (N32061)    -.0031 (N32249)    -.0032     

(N36112)    -.0026 (N36230)    -.0028 (N36267)     .2527 (N37031)    4.0395     

(N40177)   14.8850 (N40195)  -14.5000 (N40287)  -18.0000 (N40377)    0.0000     

(N40401)    0.0000 (N40455)    0.0000 (N40487)    0.0000 (N40543)    4.9977     

(N41468)   12.5810 (N41474)   12.5290 (N41692)  -28.9820 (N41698)  -28.6570     

(PWM_IN)    3.9905 (VERROR)     .4672 (X_M1.4)    8.5538 (X_M1.5)   35.5820     

(X_M1.6)    5.6190 (X_M2.4)  -23.7460 (X_M2.5)    7.6951 (X_M2.6)  -21.5810     

(X_U7.7)    1.4215 (X_U7.8)  -14.3530 (X_U7.9)  -14.9660 (X_U9.3)    -.0027     

(X_U9.4)   14.4100 (X_U9.5)   14.4100 (X_U9.6)    -.7589 (X_U9.7)    -.7588     

(X_U9.8)   -1.3274 (X_U9.9)     .2527 (VTRIANG)     .3107                       

(X_M1.11)   35.5820                   (X_M1.12)   35.5820                       

(X_M1.22)    6.7575                   (X_M1.33)    6.9824                       

(X_M2.11)    7.6952                   (X_M2.12)    7.6952                       

(X_M2.22)  -22.9250                   (X_M2.33)  -23.9080                       

(X_U11.3)    -.0026                   (X_U11.4)   14.4100                       

(X_U11.5)   14.4100                   (X_U11.6)    -.7587                       

(X_U11.7)    -.7587                   (X_U11.8)   -1.3272                       

(X_U11.9)    -.0026                   (X_U7.10)     .0340                       

(X_U7.11)     .0340                   (X_U7.21)     .9172                       

(X_U7.22)     .7607                   (X_U9.10)   13.1700                       

(X_U9.11)  -13.1700                   (X_U9.14)    -.0030                       

(X_U9.15)-3.002E-09                   (X_U9.31)     .2527                       

(X_U9.32) 252.7E+03                   (X_U9.33)     .2527                       

(X_U9.34) 252.7E+03                   (X_U9.35)     .2527                       

(X_U9.36)     .2527                   (X_U9.40)     .2527                       

(X_U9.41)     .2127                   (X_U9.42)     .2927                       

(X_U9.45)     .2527                   (X_U9.60)    -.4879                       

(X_U9.61)    0.0000                   (X_U9.62)    0.0000                       

(X_U9.98)    0.0000                   (X_U1.DIS)    0.0000                      

(X_U11.10)   13.1700                  (X_U11.11)  -13.1700                      

(X_U11.14)    -.0029                  (X_U11.15)-2.853E-09                      

(X_U11.31)    -.0026                  (X_U11.32)-2574.2000                      

(X_U11.33)    -.0026                  (X_U11.34)-2574.2000                      

(X_U11.35)    -.0026                  (X_U11.36)    -.0026                      

(X_U11.40)    -.0026                  (X_U11.41)    -.0426                      

(X_U11.42)     .0374                  (X_U11.45)    -.0026                      

(X_U11.60)    -.4907                  (X_U11.61)    0.0000                      

(X_U11.62)    0.0000                  (X_U11.98)    0.0000                      

(X_U1.DRVA)    0.0000                 (X_U1.DRVB)    0.0000                     

(X_U1.NO_DT)    0.0000                (X_U1.PWMIN)    1.0000                    

(X_U1.UVLO1)    5.0000                (X_U1.UVLO2)    0.0000                    

(X_U1.INA_OK)    5.0000               (X_U1.INB_OK) 2.500E-09                   

(X_U1.PWMINB)    0.0000               (X_U1.UVLO2B)    5.0000                   

(X_U1.INA_INT)    3.9905              (X_U1.INA_OKD)    5.0000                  

(X_U1.INA_PRE)    5.0000              (X_U1.INB_OKD) 2.500E-09                  

(X_U1.INB_PRE)    0.0000              (X_U1.VCCI_INT)    5.0000                 

(X_U1.DRVA_PASS)    0.0000            (X_U1.DRVB_PASS)    0.0000                

(X_U1.FAULT_INP)    5.0000            (X_U1.N16668890)    8.5000                

(X_U1.N16668898)    8.5000            (X_U1.N16669068)    0.0000                

(X_U1.N16669308)   13.0910            (X_U1.N16669580)    5.0000                

(X_U1.N16669674)    0.0000            (X_U1.N16669834)    2.7000                

(X_U1.N16669842)    2.5000            (X_U1.N16669858)    5.0000                

(X_U1.N16670120)     .6556            (X_U1.N16670154)    2.0000                

(X_U1.N16670162)     .0217            (X_U1.N16670228)    0.0000                

(X_U1.N16670408)    0.0000            (X_U1.N16670672)    1.0000                

(X_U1.N16670780)    1.6774            (X_U1.N16670790)    0.0000                

(X_U1.N16670816)    4.9977            (X_U1.N16670888)    8.5000                

(X_U1.N16670896)    8.0000            (X_U1.N16671044)   12.0000                

(X_U1.N16671166)    0.0000            (X_U1.N16671236)    0.0000                

(X_U1.N16671468) 490.8E-12            (X_U1.N16671552)    2.0005                

(X_U1.N16671580)    2.0000            (X_U1.N16671640)    5.0000                

(X_U1.N16671702)    5.0000            (X_U1.N16671830)    5.0900                

(X_U1.N16671850)    0.0000            (X_U1.N16672106)    1.0000                

(X_U1.N16672276)    1.8000            (X_U1.N16672306)    1.0000                

(X_U1.N16672528)     .9969            (X_U1.N16672594)    0.0000                

(X_U1.N16672776)  -18.0000            (X_U1.N16672784)  -29.6650                

(X_U1.N16672968)  -29.7430            (X_U1.N16673112) 2.500E-09                

(X_U1.N16673358)    0.0000            (X_U1.N16673432)    1.8000                

(X_U1.N16673492)    1.8000            (X_U1.N16673790)     .0031                

(X_U1.N16698404)    5.0000            (X_U1.N16970878)   14.8850                

(X_U1.N17051744)    4.8048            (X_U1.N17051757)    5.0000                

(X_U1.N17051771)  -25.1950            (X_U1.N17088411)   13.1200                

(X_U1.N17110019)    5.0000            (X_U1.N17110021)    5.0000                

(X_U1.N17110038)   18.2080            (X_U1.N17127259)   13.2080                

(X_U1.N17153666)    5.0000            (X_U1.N17167704)  -30.0000                

(X_U1.N17167706)    5.0000            (X_U1.N17196585)    0.0000                

(X_U1.N17198437)    5.0000            (X_U1.N17201974)    5.0000                

(X_U1.N17396123) 513.6E-06            (X_U1.N17407797)    5.0108                

(X_U1.N167201110) 1.352E-24           (X_U1.N167208610)    5.0000               

(X_U1.N167216030)    5.0000           (X_U1.X_U42.YINT)    0.0000               

(X_U1.X_U43.YINT)    5.0000           (X_U1.X_U44.YINT)    5.0000               

(X_U1.X_U54.YINT)    5.0000           (X_U1.X_U61.YINT)    5.0000               

(X_U1.X_U62.YINT)    5.0000           (X_U1.DEAD_THRESH)     .0023              

(X_U1.UVLO1_DELAYED)    5.0000        (X_U1.UVLO2_DELAYED) 10.26E-18            

(X_U1.UVLO2B_DELAYED)    5.0000       

Resuming could not converge the circuit, restarting it now

  These supply currents failed to converge:

    I(X_U1.E_E15)             =    1.554uA  \    2.508uA

  These devices failed to converge:
    X_M1.M2   
Restarting Simulation with the following settings
ITL4 = 1000
RELTOL = 0.0086
ABSTOL = 1.58e-008


**** 05/26/20 20:57:42 ****** PSpice 17.2.0 (March 2016) ****** ID# 0 ********

 ** Profile: "SCHEMATIC1-tran"  [ C:\Users\Comumar\Desktop\Fiuba\Circuitos 2\NUEVO\DCE-GRUPO10\REALIMENTADOR\PSpice\realimentador-psp


 ****     INITIAL TRANSIENT SOLUTION       TEMPERATURE =   27.000 DEG C


******************************************************************************



 NODE   VOLTAGE     NODE   VOLTAGE     NODE   VOLTAGE     NODE   VOLTAGE


(   5V)    5.0000  (   HO)-662.0E-06  (   LO)  -30.0000  (   VO)-63.17E-09      

(   VS)-63.17E-09  (  -5V)   -5.0000  (  15V)   15.0000  (  VCC)   30.0000      

(  VEE)  -30.0000  ( -15V)  -15.0000  (N32061)    -.0031 (N32249)    -.0032     

(N36112)    -.0026 (N36230)    -.0028 (N36267)     .2527 (N37031)    4.9751     

(N40177)    -.0013 (N40195)  -18.0000 (N40287)  -18.0000 (N40377)    0.0000     

(N40401)    0.0000 (N40455)    0.0000 (N40487)    0.0000 (N40543)    4.9977     

(N41468)-662.0E-06 (N41474)-662.0E-06 (N41692)  -30.0000 (N41698)  -30.0000     

(PWM_IN)    4.9739 (VERROR)    0.0000 (X_M1.4)    2.9359 (X_M1.5)   30.0000     

(X_M1.6)-662.0E-06 (X_M2.4)  -27.0630 (X_M2.5)-63.17E-09 (X_M2.6)  -30.0000     

(X_U7.7)    -.3892 (X_U7.8)  -14.3500 (X_U7.9)  -14.9820 (X_U9.3)    -.0027     

(X_U9.4)   14.4100 (X_U9.5)   14.4100 (X_U9.6)    -.7589 (X_U9.7)    -.7588     

(X_U9.8)   -1.3274 (X_U9.9)     .2527 (VTRIANG)   -1.5000                       

(X_M1.11)   30.0000                   (X_M1.12)   30.0000                       

(X_M1.22)-662.0E-06                   (X_M1.33)-63.17E-09                       

(X_M2.11)-63.17E-09                   (X_M2.12)-63.17E-09                       

(X_M2.22)  -30.0000                   (X_M2.33)  -30.0000                       

(X_U11.3)    -.0026                   (X_U11.4)   14.4100                       

(X_U11.5)   14.4100                   (X_U11.6)    -.7587                       

(X_U11.7)    -.7587                   (X_U11.8)   -1.3272                       

(X_U11.9)    -.0026                   (X_U7.10)     .0179                       

(X_U7.11)     .0179                   (X_U7.21)     .4500                       

(X_U7.22)   -1.0500                   (X_U9.10)   13.1700                       

(X_U9.11)  -13.1700                   (X_U9.14)    -.0030                       

(X_U9.15)-3.002E-09                   (X_U9.31)     .2527                       

(X_U9.32) 252.7E+03                   (X_U9.33)     .2527                       

(X_U9.34) 252.7E+03                   (X_U9.35)     .2527                       

(X_U9.36)     .2527                   (X_U9.40)     .2527                       

(X_U9.41)     .2127                   (X_U9.42)     .2927                       

(X_U9.45)     .2527                   (X_U9.60)    -.4879                       

(X_U9.61)    0.0000                   (X_U9.62)    0.0000                       

(X_U9.98)    0.0000                   (X_U1.DIS)    0.0000                      

(X_U11.10)   13.1700                  (X_U11.11)  -13.1700                      

(X_U11.14)    -.0029                  (X_U11.15)-2.852E-09                      

(X_U11.31)    -.0026                  (X_U11.32)-2574.3000                      

(X_U11.33)    -.0026                  (X_U11.34)-2574.2000                      

(X_U11.35)    -.0026                  (X_U11.36)    -.0026                      

(X_U11.40)    -.0026                  (X_U11.41)    -.0426                      

(X_U11.42)     .0374                  (X_U11.45)    -.0026                      

(X_U11.60)    -.4907                  (X_U11.61)    0.0000                      

(X_U11.62)    0.0000                  (X_U11.98)    0.0000                      

(X_U1.DRVA)    0.0000                 (X_U1.DRVB)    0.0000                     

(X_U1.NO_DT)    0.0000                (X_U1.PWMIN)    1.0000                    

(X_U1.UVLO1)    5.0000                (X_U1.UVLO2)    0.0000                    

(X_U1.INA_OK)    5.0000               (X_U1.INB_OK)    0.0000                   

(X_U1.PWMINB)    0.0000               (X_U1.UVLO2B)    5.0000                   

(X_U1.INA_INT)    4.9739              (X_U1.INA_OKD)    5.0000                  

(X_U1.INA_PRE)    5.0000              (X_U1.INB_OKD)    0.0000                  

(X_U1.INB_PRE)    0.0000              (X_U1.VCCI_INT)    5.0000                 

(X_U1.DRVA_PASS)    0.0000            (X_U1.DRVB_PASS)    0.0000                

(X_U1.FAULT_INP)    5.0000            (X_U1.N16668890)    8.5000                

(X_U1.N16668898)    8.5000            (X_U1.N16669068)    0.0000                

(X_U1.N16669308)-662.0E-06            (X_U1.N16669580)    5.0000                

(X_U1.N16669674)    0.0000            (X_U1.N16669834)    2.7000                

(X_U1.N16669842)    2.5000            (X_U1.N16669858)    5.0000                

(X_U1.N16670120) 90.87E-06            (X_U1.N16670154)    2.0000                

(X_U1.N16670162)-22.27E-18            (X_U1.N16670228)    0.0000                

(X_U1.N16670408)    0.0000            (X_U1.N16670672)    1.0000                

(X_U1.N16670780)    -.0013            (X_U1.N16670790)    0.0000                

(X_U1.N16670816)    4.9977            (X_U1.N16670888)    8.5000                

(X_U1.N16670896)    8.0000            (X_U1.N16671044)   12.0000                

(X_U1.N16671166)    0.0000            (X_U1.N16671236)    0.0000                

(X_U1.N16671468)    0.0000            (X_U1.N16671552) 8.020E-15                

(X_U1.N16671580)    2.0000            (X_U1.N16671640)    0.0000                

(X_U1.N16671702)    0.0000            (X_U1.N16671830)    5.0000                

(X_U1.N16671850)    0.0000            (X_U1.N16672106)    1.0000                

(X_U1.N16672276)    1.8000            (X_U1.N16672306)    1.0000                

(X_U1.N16672528)    1.0000            (X_U1.N16672594)    0.0000                

(X_U1.N16672776)  -18.0000            (X_U1.N16672784)  -30.0000                

(X_U1.N16672968)  -30.0000            (X_U1.N16673112)    0.0000                

(X_U1.N16673358)    0.0000            (X_U1.N16673432)    1.8000                

(X_U1.N16673492)    1.8000            (X_U1.N16673790)    0.0000                

(X_U1.N16698404)    5.0000            (X_U1.N16970878)    -.0013                

(X_U1.N17051744)    5.0000            (X_U1.N17051757)    5.0000                

(X_U1.N17051771)  -25.0000            (X_U1.N17088411)-500.0E-06                

(X_U1.N17110019)    5.0000            (X_U1.N17110021)    5.0000                

(X_U1.N17110038)    5.0000            (X_U1.N17127259)-63.18E-09                

(X_U1.N17153666)    5.0000            (X_U1.N17167704)  -30.0000                

(X_U1.N17167706)    5.0000            (X_U1.N17196585)    0.0000                

(X_U1.N17198437)    5.0000            (X_U1.N17201974)    5.0000                

(X_U1.N17396123)-15.66E-21            (X_U1.N17407797)    5.0000                

(X_U1.N167201110)-73.22E-21           (X_U1.N167208610)    5.0000               

(X_U1.N167216030)    5.0000           (X_U1.X_U42.YINT)    0.0000               

(X_U1.X_U43.YINT)    5.0000           (X_U1.X_U44.YINT)    5.0000               

(X_U1.X_U54.YINT)    5.0000           (X_U1.X_U61.YINT)    5.0000               

(X_U1.X_U62.YINT)    5.0000           (X_U1.DEAD_THRESH)     .0023              

(X_U1.UVLO1_DELAYED)    5.0000        (X_U1.UVLO2_DELAYED) 10.77E-18            

(X_U1.UVLO2B_DELAYED)    5.0000       




    VOLTAGE SOURCE CURRENTS
    NAME         CURRENT

    V_V3         1.281E-09
    V_V5        -4.797E-03
    V_V4        -8.007E-09
    V_V6        -1.543E-11
    V_V7         0.000E+00
    V_V8        -1.833E-02
    V_V9        -1.833E-02
    V_V2         1.996E-07
    V_V1        -1.212E-03
    X_U7.vi1    -1.543E-11
    X_U7.vi2     1.996E-07
    X_U7.v1     -4.958E-12
    X_U1.V_V8   -4.010E-12
    X_U1.V_V1    0.000E+00
    X_U1.V_V10   0.000E+00
    X_U1.V_V11   0.000E+00
    X_U1.V_V6    0.000E+00
    X_U1.V_V12   0.000E+00
    X_U1.V_V13   0.000E+00
    X_U1.V_V2    0.000E+00
    X_U1.V_V14   0.000E+00
    X_U1.V_V9    0.000E+00
    X_U1.V_V7    0.000E+00
    X_U1.V_V3    0.000E+00
    X_U1.V_V5   -4.543E-02
    X_U9.V1      1.293E-11
    X_U9.V2      1.343E-11
    X_U9.V7     -4.979E-13
    X_U9.V8      1.558E-06
    X_U9.V5     -4.782E-14
    X_U9.V6     -4.790E-14
    X_U11.V1     1.318E-11
    X_U11.V2     1.318E-11
    X_U11.V7    -5.007E-13
    X_U11.V8     1.733E-06
    X_U11.V5    -4.784E-14
    X_U11.V6    -4.790E-14
    X_U1.X_H1.VH_H1   2.272E-03

    TOTAL POWER DISSIPATION   6.79E-01  WATTS


**** 05/26/20 20:57:42 ****** PSpice 17.2.0 (March 2016) ****** ID# 0 ********

 ** Profile: "SCHEMATIC1-tran"  [ C:\Users\Comumar\Desktop\Fiuba\Circuitos 2\NUEVO\DCE-GRUPO10\REALIMENTADOR\PSpice\realimentador-psp


 ****     FOURIER ANALYSIS                 TEMPERATURE =   27.000 DEG C


******************************************************************************



FOURIER COMPONENTS OF TRANSIENT RESPONSE V(VO)



 DC COMPONENT =  -1.2741E-02

 HARMONIC   FREQUENCY     FOURIER     NORMALIZED     PHASE     NORMALIZED
    NO         (HZ)      COMPONENT     COMPONENT     (DEG)     PHASE (DEG)

     1    2.0000E+04   2.1899E+01   1.0000E+00  -3.2746E+01   0.0000E+00
     2    4.0000E+04   4.1129E-01   1.8781E-02  -8.6080E+01  -2.0589E+01
     3    6.0000E+04   1.2101E-01   5.5255E-03   4.8463E+01   1.4670E+02


     TOTAL HARMONIC DISTORTION =   1.9577E+00 PERCENT


          JOB CONCLUDED
 AutoConverge Simulator Options
 ITL1 = 150
 ITL2 = 20
 ITL4 = 100
 RELTOL = 0.00859871
 ABSTOL = 1.58489e-008
 VNTOL = 1e-006
 PIVTOL = 1e-013

**** 05/26/20 20:57:42 ****** PSpice 17.2.0 (March 2016) ****** ID# 0 ********

 ** Profile: "SCHEMATIC1-tran"  [ C:\Users\Comumar\Desktop\Fiuba\Circuitos 2\NUEVO\DCE-GRUPO10\REALIMENTADOR\PSpice\realimentador-psp


 ****     JOB STATISTICS SUMMARY


******************************************************************************



  Total job time (using Solver 1)   =       72.22
