
**** 04/04/20 17:47:58 ****** PSpice 17.2.0 (March 2016) ****** ID# 0 ********

 ** Profile: "SCHEMATIC1-tran"  [ C:\Users\emanu\Desktop\DCE-GRUPO10\REALIMENTADOR\PSpice\realimentador-pspicefiles\schematic1\tran.s


 ****     CIRCUIT DESCRIPTION


******************************************************************************




** Creating circuit file "tran.cir" 
** WARNING: THIS AUTOMATICALLY GENERATED FILE MAY BE OVERWRITTEN BY SUBSEQUENT SIMULATIONS

*Libraries: 
* Profile Libraries :
* Local Libraries :
.LIB "../../../lib/ucc20520_pspice_trans/ucc20520_trans.lib" 
* From [PSPICE NETLIST] section of D:\Cadence\SPB_Data\cdssetup\OrCAD_PSpice\17.2.0\PSpice.ini file:
.lib "nom.lib" 

*Analysis directives: 
.TRAN  0 2m 1m 
.FOUR 10E3 6 V([VO]) 
.OPTIONS ADVCONV
.OPTIONS SOLVER= 1
.OPTIONS METHOD= Default
.OPTIONS THREADS= 8
.AUTOCONVERGE ITL1=1000 ITL2=1000 ITL4=1000 RELTOL=0.05 ABSTOL=1.0E-6 VNTOL=.001 PIVTOL=1.0E-10 
.PROBE64 V(alias(*)) I(alias(*)) W(alias(*)) D(alias(*)) NOISE(alias(*)) 
.INC "..\SCHEMATIC1.net" 



**** INCLUDING SCHEMATIC1.net ****
* source REALIMENTADOR
V_V3         VCC 0 30Vdc
V_V5         5V 0 5Vdc
V_V4         0 VEE 30Vdc
V_V6         N32277 0  
+SIN 0 1.1 10k 0 0 0
C_C5         VS N29886  1u  TC=0,0 
R_R8         N30086 0  1 TC=0,0 
R_R2         N29996 N29904  10 TC=0,0 
C_C1         0 N30252  2.2n  TC=0,0 
R_R11         0 N30110  1 TC=0,0 
V_V1         N29996 VEE 12Vdc
R_R9         N30164 0  1 TC=0,0 
D_D6         N29904 N29886 D1N4148 
C_C2         VEE N29996  10u  TC=0,0 
C_C4         VEE N29996  220n  TC=0,0 
X_U1         0 N30252 0 N30110 N30196 N30164 N30086 HO LO PWM_IN 5V 5V N29886
+  N29996 VS VEE UCC20520_TRANS
R_R1         0 N30252  2.2k TC=0,0 
C_C6         VS N29886  100n  TC=0,0 
R_R10         0 N30196  1 TC=0,0 
C_C3         VEE N29996  10u  TC=0,0 
D_D3         N31116 HO MURS320T3G 
R_R5         N31116 N31122  1.2 TC=0,0 
R_R4         HO N31122  3.3 TC=0,0 
R_R6         N31336 N31342  1.2 TC=0,0 
X_M1         VCC N31122 VS PHB27NQ10T/PLP
C_C7         VS N31122  1n  TC=0,0 
C_C8         VEE N31342  1n  TC=0,0 
L_L1         VS VO  33u  
C_C9         0 VO  330n  TC=0,0 
X_M2         VS N31342 VEE PHB27NQ10T/PLP
R_R3         LO N31342  3.3 TC=0,0 
D_D4         N31336 LO MURS320T3G 
R_R7         0 VO  8 TC=0,0 
V_V7         0 -5V 5Vdc
V_V8         15V 0 15Vdc
V_V9         0 -15V 15Vdc
R_R14         N32061 VS  19k TC=0,0 
R_R15         0 N32061  1k TC=0,0 
R_R16         N32277 N32247  1k TC=0,0 
R_R17         0 N32247  82k TC=0,0 
C_C11         0 N32247  220p  TC=0,0 
X_U4         N32061 N36108 15V -15V N36108 AD817/AD
R_R18         N36228 N36108  1k TC=0,0 
R_R19         N36228 VERROR  82k TC=0,0 
C_C12         N36228 VERROR  220p  TC=0,0 
V_V2         VTRIANG 0  
+PULSE -1.5 1.5 0 2.499u 2.499u 1n 5u
R_R21         PWM_IN N37031  51 TC=0,0 
C_C13         0 PWM_IN  33p  TC=0,0 
R_R20         N37031 5V  1k TC=0,0 
X_U7         VERROR VTRIANG 15V -15V N37031 0 LM311 
X_U8         N32247 N36228 15V -15V VERROR AD817/AD

**** RESUMING tran.cir ****
.END

**** 04/04/20 17:47:58 ****** PSpice 17.2.0 (March 2016) ****** ID# 0 ********

 ** Profile: "SCHEMATIC1-tran"  [ C:\Users\emanu\Desktop\DCE-GRUPO10\REALIMENTADOR\PSpice\realimentador-pspicefiles\schematic1\tran.s


 ****     Diode MODEL PARAMETERS


******************************************************************************




               D1N4148         MURS320T3G      X_M1.Dbody      X_M2.Dbody      
          IS    2.682000E-09   23.789000E-09   10.000000E-15   10.000000E-15 
           N    1.836           1.6119           .85             .85         
         ISR    1.565000E-09   19.406000E-09                                 
          NR                    3.5766                                       
         IKF     .04417        61.67            1.000000E+03    1.000000E+03 
          BV  100             200             100             100            
         IBV  100.000000E-06  800.000000E-09  250.000000E-06  250.000000E-06 
          RS     .5664          8.451400E-03    8.300000E-03    8.300000E-03 
          TT   11.540000E-09   35.000000E-09   60.000000E-09   60.000000E-09 
         CJO    4.000000E-12  137.580000E-12                                 
          VJ     .5             1.4981           .4              .4          
           M     .3333           .49862                                      
          EG                    1.0274                                       
         XTI                    5.000000E-09                                 


               X_U4.DX         X_U7.dx         X_U8.DX         X_U1.X_U48.dd   
          IS   10.000000E-15  800.000000E-18   10.000000E-15   10.000000E-15 
           N                                                    1.000000E-03 


               X_U1.X_U40.dd   X_U1.X_U47.dd   X_U1.X_U57.dd   X_U1.X_U55.dd   
          IS   10.000000E-15   10.000000E-15   10.000000E-15   10.000000E-15 
           N    1.000000E-03    1.000000E-03    1.000000E-03    1.000000E-03 


               X_U1.X_U33.dd   X_U1.X_U37.dd   X_U1.X_U38.dd   X_U1.X_U35.dd   
          IS   10.000000E-15   10.000000E-15   10.000000E-15   10.000000E-15 
           N    1.000000E-03    1.000000E-03    1.000000E-03    1.000000E-03 


               X_U1.X_U56.dd   X_U1.X_U59.dd   X_U1.X_U60.dd   X_U1.X_U39.dd   
          IS   10.000000E-15   10.000000E-15   10.000000E-15   10.000000E-15 
           N    1.000000E-03    1.000000E-03    1.000000E-03    1.000000E-03 


**** 04/04/20 17:47:58 ****** PSpice 17.2.0 (March 2016) ****** ID# 0 ********

 ** Profile: "SCHEMATIC1-tran"  [ C:\Users\emanu\Desktop\DCE-GRUPO10\REALIMENTADOR\PSpice\realimentador-pspicefiles\schematic1\tran.s


 ****     BJT MODEL PARAMETERS


******************************************************************************




               X_U4.QN         X_U7.qin        X_U7.qmi        X_U7.qmo        
               NPN             PNP             NPN             NPN             
       LEVEL    1               1               1               1            
          IS  100.000000E-18  800.000000E-18  800.000000E-18  800.000000E-18 
          BF  151.52          500               1.002000E+03    1.000000E+03 
          NF    1               1               1               1            
          BR    1               1               1               1            
          NR    1               1               1               1            
         ISS    0               0               0               0            
          RE    0               0               0               0            
          RC    0               0               0               0            
         CJE    0               0               0               0            
         VJE     .75             .75             .75             .75         
         CJC    0               0               0               1.000000E-15 
         VJC     .75             .75             .75             .75         
         MJC     .33             .33             .33             .33         
        XCJC    1               1               1               1            
         CJS    0               0               0               0            
         VJS     .75             .75             .75             .75         
          TR                                                  124.200000E-09 
          KF    0               0               0               0            
          AF    1               1               1               1            
          CN    2.42            2.2             2.42            2.42         
           D     .87             .52             .87             .87         


               X_U7.qoc        X_U8.QN         
               NPN             NPN             
       LEVEL    1               1            
          IS  800.000000E-18  100.000000E-18 
          BF  206.900000E+03  151.52         
          NF    1               1            
          BR    1               1            
          NR    1               1            
         ISS    0               0            
          RE    0               0            
          RC    0               0            
         CJE    0               0            
         VJE     .75             .75         
         CJC    1.000000E-15    0            
         VJC     .75             .75         
         MJC     .33             .33         
        XCJC    1               1            
         CJS    0               0            
         VJS     .75             .75         
          TF    7.855000E-12                 
          TR   83.830000E-09                 
          KF    0               0            
          AF    1               1            
          CN    2.42            2.42         
           D     .87             .87         


**** 04/04/20 17:47:58 ****** PSpice 17.2.0 (March 2016) ****** ID# 0 ********

 ** Profile: "SCHEMATIC1-tran"  [ C:\Users\emanu\Desktop\DCE-GRUPO10\REALIMENTADOR\PSpice\realimentador-pspicefiles\schematic1\tran.s


 ****     MOSFET MODEL PARAMETERS


******************************************************************************




               X_M1.MOST1      X_M1.MOST2      X_M2.MOST1      X_M2.MOST2      
               NMOS            NMOS            NMOS            NMOS            
       LEVEL    3               3               3               3            
           L  300.000000E-09  300.000000E-09  300.000000E-09  300.000000E-09 
           W     .1              .1              .1              .1          
         VTO    3.73           -2.7             3.73           -2.7          
          KP   40.800000E-06   40.800000E-06   40.800000E-06   40.800000E-06 
       GAMMA    0               0               0               0            
         PHI     .6              .6              .6              .6          
      LAMBDA    0               0               0               0            
          RD                    1.000000E+03                    1.000000E+03 
          RS                    1.000000E+03                    1.000000E+03 
          IS    0               0               0               0            
          JS    0               0               0               0            
          PB     .8              .8              .8              .8          
        PBSW     .8              .8              .8              .8          
          CJ    0               0               0               0            
        CJSW    0               0               0               0            
        CGSO    0               0               0               0            
        CGDO    0               0               0               0            
        CGBO    0               0               0               0            
         NFS    1.100000E+12                    1.100000E+12                 
         TOX  100.000000E-09  100.000000E-09  100.000000E-09  100.000000E-09 
          XJ  500.000000E-09  500.000000E-09  500.000000E-09  500.000000E-09 
          UO  650             650             650             650            
       UCRIT   10.000000E+03   10.000000E+03   10.000000E+03   10.000000E+03 
       DELTA     .1              .1              .1              .1          
         ETA  100.000000E-06  100.000000E-06  100.000000E-06  100.000000E-06 
       KAPPA     .1              .1              .1              .1          
      DIOMOD    1               1               1               1            
         VFB    0               0               0               0            
        LETA    0               0               0               0            
        WETA    0               0               0               0            
          U0    0               0               0               0            
        TEMP    0               0               0               0            
         VDD    5               5               5               5            
       XPART    0               0               0               0            


               X_U1.X_M13._mod X_U1.X_M15._mod X_U1.X_M14._mod X_U1.X_M12._mod 
               NMOS            NMOS            NMOS            NMOS            
       LEVEL    1               1               1               1            
           L   10.000000E-09   10.000000E-09   10.000000E-09   10.000000E-09 
           W    2.4             2.4              .285            .285        
         VTO    0               0               0               0            
          KP    2.000000E-09    2.000000E-09    2.000000E-09    2.000000E-09 
       GAMMA    0               0               0               0            
         PHI     .6              .6              .6              .6          
      LAMBDA    0               0               0               0            
          IS   10.000000E-15   10.000000E-15   10.000000E-15   10.000000E-15 
          JS    0               0               0               0            
           N    2.5             2.5             2.5             2.5          
          PB     .8              .8              .8              .8          
        PBSW     .8              .8              .8              .8          
          CJ    0               0               0               0            
        CJSW    0               0               0               0            
        CGSO    0               0               0               0            
        CGDO    0               0               0               0            
        CGBO    0               0               0               0            
         TOX    0               0               0               0            
          XJ    0               0               0               0            
       UCRIT   10.000000E+03   10.000000E+03   10.000000E+03   10.000000E+03 
      DIOMOD    1               1               1               1            
         VFB    0               0               0               0            
        LETA    0               0               0               0            
        WETA    0               0               0               0            
          U0    0               0               0               0            
        TEMP    0               0               0               0            
         VDD    5               5               5               5            
       XPART    0               0               0               0            


**** 04/04/20 17:47:58 ****** PSpice 17.2.0 (March 2016) ****** ID# 0 ********

 ** Profile: "SCHEMATIC1-tran"  [ C:\Users\emanu\Desktop\DCE-GRUPO10\REALIMENTADOR\PSpice\realimentador-pspicefiles\schematic1\tran.s


 ****     Resistor MODEL PARAMETERS


******************************************************************************




               X_M1.Rtemp      X_M2.Rtemp      
           R    1               1            
         TC1    6.810000E-03    6.810000E-03 
         TC2   28.600000E-06   28.600000E-06 


**** 04/04/20 17:47:58 ****** PSpice 17.2.0 (March 2016) ****** ID# 0 ********

 ** Profile: "SCHEMATIC1-tran"  [ C:\Users\emanu\Desktop\DCE-GRUPO10\REALIMENTADOR\PSpice\realimentador-pspicefiles\schematic1\tran.s


 ****     Voltage Controlled Switch MODEL PARAMETERS


******************************************************************************




               X_U1.X_S1._S1   X_U1.X_S6._S6   X_U1.X_S3._S3   X_U1.X_S4._S4   
         RON     .01            5.000000E-03   25               5.000000E-03 
        ROFF    1.000000E+09    1.000000E+06    1.000000E+06    1.000000E+06 
         VON    4               4.5             4.5             4.5          
        VOFF    1                .5              .5              .5          


               X_U1.X_S5._S5   X_U1.X_S2._S2   
         RON   25                .01         
        ROFF    1.000000E+06    1.000000E+09 
         VON    4.5             4            
        VOFF     .5             1            


**** 04/04/20 17:47:58 ****** PSpice 17.2.0 (March 2016) ****** ID# 0 ********

 ** Profile: "SCHEMATIC1-tran"  [ C:\Users\emanu\Desktop\DCE-GRUPO10\REALIMENTADOR\PSpice\realimentador-pspicefiles\schematic1\tran.s


 ****     INITIAL TRANSIENT SOLUTION       TEMPERATURE =   27.000 DEG C


******************************************************************************



 NODE   VOLTAGE     NODE   VOLTAGE     NODE   VOLTAGE     NODE   VOLTAGE


(   5V)    5.0000  (   HO)-663.3E-06  (   LO)  -30.0000  (   VO)-1.369E-06      

(   VS)-1.369E-06  (  -5V)   -5.0000  (  15V)   15.0000  (  VCC)   30.0000      

(  VEE)  -30.0000  ( -15V)  -15.0000  (N29886)    -.0013 (N29904)  -18.0000     

(N29996)  -18.0000 (N30086)    0.0000 (N30110)    0.0000 (N30164)    0.0000     

(N30196)    0.0000 (N30252)    4.9977 (N31116)-663.3E-06 (N31122)-663.3E-06     

(N31336)  -30.0000 (N31342)  -30.0000 (N32061)    -.0031 (N32247)    -.0032     

(N32277)    0.0000 (N36108)    -.0026 (N36228)    -.0028 (N37031)    4.9751     

(PWM_IN)    4.9739 (VERROR)     .2527 (X_M1.4)    2.9359 (X_M1.5)   30.0000     

(X_M1.6)-663.3E-06 (X_M2.4)  -27.0630 (X_M2.5)-1.369E-06 (X_M2.6)  -30.0000     

(X_U4.3)    -.0026 (X_U4.4)   14.4100 (X_U4.5)   14.4100 (X_U4.6)    -.7587     

(X_U4.7)    -.7587 (X_U4.8)   -1.3272 (X_U4.9)    -.0026 (X_U7.7)    -.3892     

(X_U7.8)  -14.3500 (X_U7.9)  -14.9820 (X_U8.3)    -.0027 (X_U8.4)   14.4100     

(X_U8.5)   14.4100 (X_U8.6)    -.7589 (X_U8.7)    -.7588 (X_U8.8)   -1.3274     

(X_U8.9)     .2527 (VTRIANG)   -1.5000                   (X_M1.11)   30.0000    

(X_M1.12)   30.0000                   (X_M1.22)-663.3E-06                       

(X_M1.33)-1.369E-06                   (X_M2.11)-1.369E-06                       

(X_M2.12)-1.369E-06                   (X_M2.22)  -30.0000                       

(X_M2.33)  -30.0000                   (X_U4.10)   13.1700                       

(X_U4.11)  -13.1700                   (X_U4.14)    -.0029                       

(X_U4.15)-2.852E-09                   (X_U4.31)    -.0026                       

(X_U4.32)-2574.3000                   (X_U4.33)    -.0026                       

(X_U4.34)-2574.3000                   (X_U4.35)    -.0026                       

(X_U4.36)    -.0026                   (X_U4.40)    -.0026                       

(X_U4.41)    -.0426                   (X_U4.42)     .0374                       

(X_U4.45)    -.0026                   (X_U4.60)    -.4907                       

(X_U4.61)    0.0000                   (X_U4.62)    0.0000                       

(X_U4.98)    0.0000                   (X_U7.10)     .0179                       

(X_U7.11)     .0179                   (X_U7.21)     .7027                       

(X_U7.22)   -1.0500                   (X_U8.10)   13.1700                       

(X_U8.11)  -13.1700                   (X_U8.14)    -.0030                       

(X_U8.15)-3.002E-09                   (X_U8.31)     .2527                       

(X_U8.32) 252.7E+03                   (X_U8.33)     .2527                       

(X_U8.34) 252.7E+03                   (X_U8.35)     .2527                       

(X_U8.36)     .2527                   (X_U8.40)     .2527                       

(X_U8.41)     .2127                   (X_U8.42)     .2927                       

(X_U8.45)     .2527                   (X_U8.60)    -.4879                       

(X_U8.61)    0.0000                   (X_U8.62)    0.0000                       

(X_U8.98)    0.0000                   (X_U1.DIS)    0.0000                      

(X_U1.DRVA)    0.0000                 (X_U1.DRVB)    0.0000                     

(X_U1.NO_DT)    0.0000                (X_U1.PWMIN)    1.0000                    

(X_U1.UVLO1)    5.0000                (X_U1.UVLO2)    0.0000                    

(X_U1.INA_OK)    5.0000               (X_U1.INB_OK)    0.0000                   

(X_U1.PWMINB)    0.0000               (X_U1.UVLO2B)    5.0000                   

(X_U1.INA_INT)    4.9739              (X_U1.INA_OKD)    5.0000                  

(X_U1.INA_PRE)    5.0000              (X_U1.INB_OKD)    0.0000                  

(X_U1.INB_PRE)    0.0000              (X_U1.VCCI_INT)    5.0000                 

(X_U1.DRVA_PASS)    0.0000            (X_U1.DRVB_PASS)    0.0000                

(X_U1.FAULT_INP)    5.0000            (X_U1.N16668890)    8.5000                

(X_U1.N16668898)    8.5000            (X_U1.N16669068)    0.0000                

(X_U1.N16669308)-663.3E-06            (X_U1.N16669580)    5.0000                

(X_U1.N16669674)    0.0000            (X_U1.N16669834)    2.7000                

(X_U1.N16669842)    2.5000            (X_U1.N16669858)    5.0000                

(X_U1.N16670120) 90.87E-06            (X_U1.N16670154)    2.0000                

(X_U1.N16670162)-22.27E-18            (X_U1.N16670228)    0.0000                

(X_U1.N16670408)    0.0000            (X_U1.N16670672)    1.0000                

(X_U1.N16670780)    -.0013            (X_U1.N16670790)    0.0000                

(X_U1.N16670816)    4.9977            (X_U1.N16670888)    8.5000                

(X_U1.N16670896)    8.0000            (X_U1.N16671044)   12.0000                

(X_U1.N16671166)    0.0000            (X_U1.N16671236)    0.0000                

(X_U1.N16671468)    0.0000            (X_U1.N16671552) 8.020E-15                

(X_U1.N16671580)    2.0000            (X_U1.N16671640)    0.0000                

(X_U1.N16671702)    0.0000            (X_U1.N16671830)    5.0000                

(X_U1.N16671850)    0.0000            (X_U1.N16672106)    1.0000                

(X_U1.N16672276)    1.8000            (X_U1.N16672306)    1.0000                

(X_U1.N16672528)    1.0000            (X_U1.N16672594)    0.0000                

(X_U1.N16672776)  -18.0000            (X_U1.N16672784)  -30.0000                

(X_U1.N16672968)  -30.0000            (X_U1.N16673112)    0.0000                

(X_U1.N16673358)    0.0000            (X_U1.N16673432)    1.8000                

(X_U1.N16673492)    1.8000            (X_U1.N16673790)    0.0000                

(X_U1.N16698404)    5.0000            (X_U1.N16970878)    -.0013                

(X_U1.N17051744)    5.0000            (X_U1.N17051757)    5.0000                

(X_U1.N17051771)  -25.0000            (X_U1.N17088411)-501.3E-06                

(X_U1.N17110019)    5.0000            (X_U1.N17110021)    5.0000                

(X_U1.N17110038)    5.0000            (X_U1.N17127259)-1.369E-06                

(X_U1.N17153666)    5.0000            (X_U1.N17167704)  -30.0000                

(X_U1.N17167706)    5.0000            (X_U1.N17196585)    0.0000                

(X_U1.N17198437)    5.0000            (X_U1.N17201974)    5.0000                

(X_U1.N17396123)-15.66E-21            (X_U1.N17407797)    5.0000                

(X_U1.N167201110)-73.22E-21           (X_U1.N167208610)    5.0000               

(X_U1.N167216030)    5.0000           (X_U1.X_U42.YINT)    0.0000               

(X_U1.X_U43.YINT)    5.0000           (X_U1.X_U44.YINT)    5.0000               

(X_U1.X_U54.YINT)    5.0000           (X_U1.X_U61.YINT)    5.0000               

(X_U1.X_U62.YINT)    5.0000           (X_U1.DEAD_THRESH)     .0023              

(X_U1.UVLO1_DELAYED)    5.0000        (X_U1.UVLO2_DELAYED) 10.77E-18            

(X_U1.UVLO2B_DELAYED)    5.0000       




    VOLTAGE SOURCE CURRENTS
    NAME         CURRENT

    V_V3         1.281E-09
    V_V5        -4.797E-03
    V_V4        -8.008E-09
    V_V6        -3.227E-06
    V_V1        -1.212E-03
    V_V7         0.000E+00
    V_V8        -1.833E-02
    V_V9        -1.833E-02
    V_V2         1.996E-07
    X_U1.V_V8   -4.010E-12
    X_U1.V_V1    0.000E+00
    X_U1.V_V10   0.000E+00
    X_U1.V_V11   0.000E+00
    X_U1.V_V6    0.000E+00
    X_U1.V_V12   0.000E+00
    X_U1.V_V13   0.000E+00
    X_U1.V_V2    0.000E+00
    X_U1.V_V14   0.000E+00
    X_U1.V_V9    0.000E+00
    X_U1.V_V7    0.000E+00
    X_U1.V_V3    0.000E+00
    X_U1.V_V5   -4.543E-02
    X_U4.V1      1.318E-11
    X_U4.V2      1.318E-11
    X_U4.V7     -5.007E-13
    X_U4.V8      1.733E-06
    X_U4.V5     -4.784E-14
    X_U4.V6     -4.790E-14
    X_U7.vi1    -1.569E-11
    X_U7.vi2     1.996E-07
    X_U7.v1     -4.958E-12
    X_U8.V1      1.293E-11
    X_U8.V2      1.343E-11
    X_U8.V7     -4.979E-13
    X_U8.V8      1.558E-06
    X_U8.V5     -4.784E-14
    X_U8.V6     -4.790E-14
    X_U1.X_H1.VH_H1   2.272E-03

    TOTAL POWER DISSIPATION   6.79E-01  WATTS

Convergence problem in transient analysis at Time =  2.034E-06
         Time step =  1.987E-15, minimum allowable step size =  2.000E-15

  These voltages failed to converge:

    V(X_M1.22)                =   220.98mV  \   230.21mV
    V(X_M1.33)                =   205.02mV  \   214.26mV
    V(X_M1.6)                 =   201.65mV  \   210.89mV
    V(X_M1.4)                 =     3.135V  \     3.145V

  These supply currents failed to converge:

    I(X_U1.E_E15)             =    41.59nA  \    1.921nA
    I(X_U8.EREF)              =  -232.19pA  \    27.37pA
    I(V_V4)                   =    20.04mA  \    20.01mA



  Last node voltages tried were:

 NODE   VOLTAGE     NODE   VOLTAGE     NODE   VOLTAGE     NODE   VOLTAGE


(   5V)    5.0000  (   HO)     .3911  (   LO)  -22.0730  (   VO)-1.365E-06      

(   VS)     .3919  (  -5V)   -5.0000  (  15V)   15.0000  (  VCC)   30.0000      

(  VEE)  -30.0000  ( -15V)  -15.0000  (N29886)     .3905 (N29904)  -17.9920     

(N29996)  -18.0000 (N30086)    0.0000 (N30110)    0.0000 (N30164)    0.0000     

(N30196)    0.0000 (N30252)    4.9977 (N31116)     .3899 (N31122)     .3890     

(N31336)  -28.3330 (N31342)  -28.3060 (N32061)     .0017 (N32247)     .1205     

(N32277)     .1402 (N36108)    -.0024 (N36228)     .1187 (N37031)     .1266     

(PWM_IN)     .1273 (VERROR)     .8657 (X_M1.4)    3.1353 (X_M1.5)   30.1480     

(X_M1.6)     .2017 (X_M2.4)  -26.4480 (X_M2.5)     .5595 (X_M2.6)  -29.3810     

(X_U4.3)     .0048 (X_U4.4)   14.4110 (X_U4.5)   14.4090 (X_U4.6)    -.7584     

(X_U4.7)    -.7514 (X_U4.8)   -1.3234 (X_U4.9)    -.0034 (X_U7.7)    1.9752     

(X_U7.8)  -14.4170 (X_U7.9)  -14.2380 (X_U8.3)     .1211 (X_U8.4)   14.4110     

(X_U8.5)   14.4090 (X_U8.6)    -.6373 (X_U8.7)    -.6351 (X_U8.8)   -1.2047     

(X_U8.9)     .8664 (VTRIANG)     .9418                   (X_M1.11)   30.1480    

(X_M1.12)   30.1480                   (X_M1.22)     .2210                       

(X_M1.33)     .2050                   (X_M2.11)     .5595                       

(X_M2.12)     .5595                   (X_M2.22)  -29.2750                       

(X_M2.33)  -29.3890                   (X_U4.10)   13.1700                       

(X_U4.11)  -13.1700                   (X_U4.14)-362.9E-06                       

(X_U4.15) 262.9E-06                   (X_U4.31)    -.0035                       

(X_U4.32)-3529.1000                   (X_U4.33)    -.0033                       

(X_U4.34)-3319.5000                   (X_U4.35)    -.0018                       

(X_U4.36)    -.0033                   (X_U4.40)    -.0035                       

(X_U4.41)    -.0435                   (X_U4.42)     .0365                       

(X_U4.45)    -.0024                   (X_U4.60)     .5851                       

(X_U4.61)    0.0000                   (X_U4.62)    0.0000                       

(X_U4.98)    0.0000                   (X_U7.10)     .7621                       

(X_U7.11)     .7621                   (X_U7.21)    1.3157                       

(X_U7.22)    1.3918                   (X_U8.10)   13.1700                       

(X_U8.11)  -13.1700                   (X_U8.14)     .1196                       

(X_U8.15) 3.587E-06                   (X_U8.31)     .8656                       

(X_U8.32) 865.6E+03                   (X_U8.33)     .8672                       

(X_U8.34) 867.2E+03                   (X_U8.35)     .8682                       

(X_U8.36)     .8673                   (X_U8.40)     .8667                       

(X_U8.41)     .8267                   (X_U8.42)     .9067                       

(X_U8.45)     .8657                   (X_U8.60)    -.5832                       

(X_U8.61)    0.0000                   (X_U8.62)    0.0000                       

(X_U8.98)    0.0000                   (X_U1.DIS)    0.0000                      

(X_U1.DRVA)    0.0000                 (X_U1.DRVB)    5.0000                     

(X_U1.NO_DT)    0.0000                (X_U1.PWMIN)    0.0000                    

(X_U1.UVLO1)    5.0000                (X_U1.UVLO2)    0.0000                    

(X_U1.INA_OK) 2.101E-09               (X_U1.INB_OK)    5.0000                   

(X_U1.PWMINB)    1.0000               (X_U1.UVLO2B)    5.0000                   

(X_U1.INA_INT)     .1273              (X_U1.INA_OKD) 2.101E-09                  

(X_U1.INA_PRE)    0.0000              (X_U1.INB_OKD)    5.0000                  

(X_U1.INB_PRE)    5.0000              (X_U1.VCCI_INT)    5.0000                 

(X_U1.DRVA_PASS)    0.0000            (X_U1.DRVB_PASS)    5.0000                

(X_U1.FAULT_INP)    5.0000            (X_U1.N16668890)    8.5000                

(X_U1.N16668898)    8.5000            (X_U1.N16669068)    0.0000                

(X_U1.N16669308)     .3911            (X_U1.N16669580) 2.101E-09                

(X_U1.N16669674)    0.0000            (X_U1.N16669834)    2.7000                

(X_U1.N16669842)    2.5000            (X_U1.N16669858)    5.0000                

(X_U1.N16670120)    2.0005            (X_U1.N16670154)    2.0000                

(X_U1.N16670162)    5.0091            (X_U1.N16670228)    5.0000                

(X_U1.N16670408)    0.0000            (X_U1.N16670672)    1.0000                

(X_U1.N16670780)    -.0013            (X_U1.N16670790)    0.0000                

(X_U1.N16670816)    4.9977            (X_U1.N16670888)    8.5000                

(X_U1.N16670896)    8.0000            (X_U1.N16671044)   12.0000                

(X_U1.N16671166)    0.0000            (X_U1.N16671236)    0.0000                

(X_U1.N16671468)    5.0000            (X_U1.N16671552)    1.0660                

(X_U1.N16671580)    2.0000            (X_U1.N16671640)    5.0000                

(X_U1.N16671702)    3.7725            (X_U1.N16671830)     .0198                

(X_U1.N16671850)    0.0000            (X_U1.N16672106)    1.0000                

(X_U1.N16672276)    1.8000            (X_U1.N16672306)    1.8000                

(X_U1.N16672528)     .0018            (X_U1.N16672594)    5.0000                

(X_U1.N16672776)  -18.9330            (X_U1.N16672784)  -10.0730                

(X_U1.N16672968)  -22.0730            (X_U1.N16673112)    5.0000                

(X_U1.N16673358)    0.0000            (X_U1.N16673432)    1.8000                

(X_U1.N16673492)    1.8000            (X_U1.N16673790)     .9982                

(X_U1.N16698404)    5.0000            (X_U1.N16970878)     .3905                

(X_U1.N17051744)    -.9301            (X_U1.N17051757)    0.0000                

(X_U1.N17051771)  -30.9300            (X_U1.N17088411)     .3913                

(X_U1.N17110019)    5.0000            (X_U1.N17110021)    5.0000                

(X_U1.N17110038)    5.3919            (X_U1.N17127259)     .3919                

(X_U1.N17153666)    5.0000            (X_U1.N17167704)  -28.9900                

(X_U1.N17167706)    2.4548            (X_U1.N17196585)    0.0000                

(X_U1.N17198437)    5.0000            (X_U1.N17201974)    5.0000                

(X_U1.N17396123)    5.0001            (X_U1.N17407797) 111.3E-06                

(X_U1.N167201110) 1.379E-24           (X_U1.N167208610)    5.0000               

(X_U1.N167216030)    5.0000           (X_U1.X_U42.YINT)    0.0000               

(X_U1.X_U43.YINT)    5.0000           (X_U1.X_U44.YINT)    5.0000               

(X_U1.X_U54.YINT)    5.0000           (X_U1.X_U61.YINT)    5.0000               

(X_U1.X_U62.YINT)    0.0000           (X_U1.DEAD_THRESH)     .0023              

(X_U1.UVLO1_DELAYED)    5.0000        (X_U1.UVLO2_DELAYED) 10.47E-18            

(X_U1.UVLO2B_DELAYED)    5.0000       

Resuming Simulation with the following settings
ITL4 = 1000
ABSTOL = 1.26e-010

Convergence problem in transient analysis at Time =  2.034E-06
         Time step =  1.987E-15, minimum allowable step size =  2.000E-15

  These voltages failed to converge:

    V(X_M1.22)                =   230.65mV  \   227.62mV
    V(X_M1.33)                =   214.70mV  \   211.66mV
    V(X_M1.6)                 =   211.33mV  \   208.29mV

  These supply currents failed to converge:

    I(X_U1.E_E15)             =   657.84pA  \   -17.39nA

  These devices failed to converge:
    X_M2.M2   



  Last node voltages tried were:

 NODE   VOLTAGE     NODE   VOLTAGE     NODE   VOLTAGE     NODE   VOLTAGE


(   5V)    5.0000  (   HO)     .3911  (   LO)  -22.0730  (   VO)-1.365E-06      

(   VS)     .3919  (  -5V)   -5.0000  (  15V)   15.0000  (  VCC)   30.0000      

(  VEE)  -30.0000  ( -15V)  -15.0000  (N29886)     .3906 (N29904)  -17.9920     

(N29996)  -18.0000 (N30086)    0.0000 (N30110)    0.0000 (N30164)    0.0000     

(N30196)    0.0000 (N30252)    4.9977 (N31116)     .3899 (N31122)     .3890     

(N31336)  -28.3330 (N31342)  -28.3060 (N32061)     .0017 (N32247)     .1205     

(N32277)     .1402 (N36108)    -.0024 (N36228)     .1187 (N37031)     .1266     

(PWM_IN)     .1273 (VERROR)     .8657 (X_M1.4)    3.1450 (X_M1.5)   30.1570     

(X_M1.6)     .2113 (X_M2.4)  -26.4480 (X_M2.5)     .5593 (X_M2.6)  -29.3810     

(X_U4.3)     .0048 (X_U4.4)   14.4110 (X_U4.5)   14.4090 (X_U4.6)    -.7584     

(X_U4.7)    -.7514 (X_U4.8)   -1.3234 (X_U4.9)    -.0034 (X_U7.7)    1.9752     

(X_U7.8)  -14.4170 (X_U7.9)  -14.2380 (X_U8.3)     .1211 (X_U8.4)   14.4110     

(X_U8.5)   14.4090 (X_U8.6)    -.6373 (X_U8.7)    -.6351 (X_U8.8)   -1.2047     

(X_U8.9)     .8664 (VTRIANG)     .9418                   (X_M1.11)   30.1570    

(X_M1.12)   30.1570                   (X_M1.22)     .2307                       

(X_M1.33)     .2147                   (X_M2.11)     .5592                       

(X_M2.12)     .5592                   (X_M2.22)  -29.2750                       

(X_M2.33)  -29.3900                   (X_U4.10)   13.1700                       

(X_U4.11)  -13.1700                   (X_U4.14)-362.7E-06                       

(X_U4.15) 262.9E-06                   (X_U4.31)    -.0035                       

(X_U4.32)-3529.1000                   (X_U4.33)    -.0033                       

(X_U4.34)-3319.4000                   (X_U4.35)    -.0018                       

(X_U4.36)    -.0033                   (X_U4.40)    -.0035                       

(X_U4.41)    -.0435                   (X_U4.42)     .0365                       

(X_U4.45)    -.0024                   (X_U4.60)     .5851                       

(X_U4.61)    0.0000                   (X_U4.62)    0.0000                       

(X_U4.98)    0.0000                   (X_U7.10)     .7621                       

(X_U7.11)     .7621                   (X_U7.21)    1.3157                       

(X_U7.22)    1.3918                   (X_U8.10)   13.1700                       

(X_U8.11)  -13.1700                   (X_U8.14)     .1196                       

(X_U8.15) 3.587E-06                   (X_U8.31)     .8656                       

(X_U8.32) 865.6E+03                   (X_U8.33)     .8672                       

(X_U8.34) 867.2E+03                   (X_U8.35)     .8681                       

(X_U8.36)     .8673                   (X_U8.40)     .8667                       

(X_U8.41)     .8267                   (X_U8.42)     .9067                       

(X_U8.45)     .8657                   (X_U8.60)    -.5832                       

(X_U8.61)    0.0000                   (X_U8.62)    0.0000                       

(X_U8.98)    0.0000                   (X_U1.DIS)    0.0000                      

(X_U1.DRVA)    0.0000                 (X_U1.DRVB)    5.0000                     

(X_U1.NO_DT)    0.0000                (X_U1.PWMIN)    0.0000                    

(X_U1.UVLO1)    5.0000                (X_U1.UVLO2)    0.0000                    

(X_U1.INA_OK) 2.101E-09               (X_U1.INB_OK)    5.0000                   

(X_U1.PWMINB)    1.0000               (X_U1.UVLO2B)    5.0000                   

(X_U1.INA_INT)     .1273              (X_U1.INA_OKD) 2.101E-09                  

(X_U1.INA_PRE)    0.0000              (X_U1.INB_OKD)    5.0000                  

(X_U1.INB_PRE)    5.0000              (X_U1.VCCI_INT)    5.0000                 

(X_U1.DRVA_PASS)    0.0000            (X_U1.DRVB_PASS)    5.0000                

(X_U1.FAULT_INP)    5.0000            (X_U1.N16668890)    8.5000                

(X_U1.N16668898)    8.5000            (X_U1.N16669068)    0.0000                

(X_U1.N16669308)     .3911            (X_U1.N16669580) 2.101E-09                

(X_U1.N16669674)    0.0000            (X_U1.N16669834)    2.7000                

(X_U1.N16669842)    2.5000            (X_U1.N16669858)    5.0000                

(X_U1.N16670120)    2.0005            (X_U1.N16670154)    2.0000                

(X_U1.N16670162)    5.0091            (X_U1.N16670228)    5.0000                

(X_U1.N16670408)    0.0000            (X_U1.N16670672)    1.0000                

(X_U1.N16670780)    -.0013            (X_U1.N16670790)    0.0000                

(X_U1.N16670816)    4.9977            (X_U1.N16670888)    8.5000                

(X_U1.N16670896)    8.0000            (X_U1.N16671044)   12.0000                

(X_U1.N16671166)    0.0000            (X_U1.N16671236)    0.0000                

(X_U1.N16671468)    5.0000            (X_U1.N16671552)    1.0660                

(X_U1.N16671580)    2.0000            (X_U1.N16671640)    5.0000                

(X_U1.N16671702)    3.7726            (X_U1.N16671830)     .0198                

(X_U1.N16671850)    0.0000            (X_U1.N16672106)    1.0000                

(X_U1.N16672276)    1.8000            (X_U1.N16672306)    1.8000                

(X_U1.N16672528)     .0018            (X_U1.N16672594)    5.0000                

(X_U1.N16672776)  -18.9330            (X_U1.N16672784)  -10.0730                

(X_U1.N16672968)  -22.0730            (X_U1.N16673112)    5.0000                

(X_U1.N16673358)    0.0000            (X_U1.N16673432)    1.8000                

(X_U1.N16673492)    1.8000            (X_U1.N16673790)     .9982                

(X_U1.N16698404)    5.0000            (X_U1.N16970878)     .3906                

(X_U1.N17051744)    -.9301            (X_U1.N17051757)    0.0000                

(X_U1.N17051771)  -30.9300            (X_U1.N17088411)     .3913                

(X_U1.N17110019)    5.0000            (X_U1.N17110021)    5.0000                

(X_U1.N17110038)    5.3919            (X_U1.N17127259)     .3919                

(X_U1.N17153666)    5.0000            (X_U1.N17167704)  -28.9900                

(X_U1.N17167706)    2.4548            (X_U1.N17196585)    0.0000                

(X_U1.N17198437)    5.0000            (X_U1.N17201974)    5.0000                

(X_U1.N17396123)    5.0001            (X_U1.N17407797) 111.3E-06                

(X_U1.N167201110) 1.379E-24           (X_U1.N167208610)    5.0000               

(X_U1.N167216030)    5.0000           (X_U1.X_U42.YINT)    0.0000               

(X_U1.X_U43.YINT)    5.0000           (X_U1.X_U44.YINT)    5.0000               

(X_U1.X_U54.YINT)    5.0000           (X_U1.X_U61.YINT)    5.0000               

(X_U1.X_U62.YINT)    0.0000           (X_U1.DEAD_THRESH)     .0023              

(X_U1.UVLO1_DELAYED)    5.0000        (X_U1.UVLO2_DELAYED) 10.47E-18            

(X_U1.UVLO2B_DELAYED)    5.0000       

Resuming Simulation with the following settings
ITL4 = 125
ABSTOL = 1.58e-008

Convergence problem in transient analysis at Time =  2.034E-06
         Time step =  1.987E-15, minimum allowable step size =  2.000E-15

  These voltages failed to converge:

    V(X_M1.22)                =   230.65mV  \   227.62mV
    V(X_M1.33)                =   214.70mV  \   211.66mV
    V(X_M1.6)                 =   211.33mV  \   208.29mV

  These supply currents failed to converge:

    I(X_U1.E_E15)             =   657.92pA  \   -17.39nA

  These devices failed to converge:
    X_M2.M2   



  Last node voltages tried were:

 NODE   VOLTAGE     NODE   VOLTAGE     NODE   VOLTAGE     NODE   VOLTAGE


(   5V)    5.0000  (   HO)     .3911  (   LO)  -22.0730  (   VO)-1.365E-06      

(   VS)     .3919  (  -5V)   -5.0000  (  15V)   15.0000  (  VCC)   30.0000      

(  VEE)  -30.0000  ( -15V)  -15.0000  (N29886)     .3906 (N29904)  -17.9920     

(N29996)  -18.0000 (N30086)    0.0000 (N30110)    0.0000 (N30164)    0.0000     

(N30196)    0.0000 (N30252)    4.9977 (N31116)     .3899 (N31122)     .3890     

(N31336)  -28.3330 (N31342)  -28.3060 (N32061)     .0017 (N32247)     .1205     

(N32277)     .1402 (N36108)    -.0024 (N36228)     .1187 (N37031)     .1266     

(PWM_IN)     .1273 (VERROR)     .8657 (X_M1.4)    3.1450 (X_M1.5)   30.1570     

(X_M1.6)     .2113 (X_M2.4)  -26.4480 (X_M2.5)     .5593 (X_M2.6)  -29.3810     

(X_U4.3)     .0048 (X_U4.4)   14.4110 (X_U4.5)   14.4090 (X_U4.6)    -.7584     

(X_U4.7)    -.7514 (X_U4.8)   -1.3234 (X_U4.9)    -.0034 (X_U7.7)    1.9752     

(X_U7.8)  -14.4170 (X_U7.9)  -14.2380 (X_U8.3)     .1211 (X_U8.4)   14.4110     

(X_U8.5)   14.4090 (X_U8.6)    -.6373 (X_U8.7)    -.6351 (X_U8.8)   -1.2047     

(X_U8.9)     .8664 (VTRIANG)     .9418                   (X_M1.11)   30.1570    

(X_M1.12)   30.1570                   (X_M1.22)     .2307                       

(X_M1.33)     .2147                   (X_M2.11)     .5593                       

(X_M2.12)     .5593                   (X_M2.22)  -29.2750                       

(X_M2.33)  -29.3900                   (X_U4.10)   13.1700                       

(X_U4.11)  -13.1700                   (X_U4.14)-362.7E-06                       

(X_U4.15) 262.9E-06                   (X_U4.31)    -.0035                       

(X_U4.32)-3529.1000                   (X_U4.33)    -.0033                       

(X_U4.34)-3319.4000                   (X_U4.35)    -.0018                       

(X_U4.36)    -.0033                   (X_U4.40)    -.0035                       

(X_U4.41)    -.0435                   (X_U4.42)     .0365                       

(X_U4.45)    -.0024                   (X_U4.60)     .5851                       

(X_U4.61)    0.0000                   (X_U4.62)    0.0000                       

(X_U4.98)    0.0000                   (X_U7.10)     .7621                       

(X_U7.11)     .7621                   (X_U7.21)    1.3157                       

(X_U7.22)    1.3918                   (X_U8.10)   13.1700                       

(X_U8.11)  -13.1700                   (X_U8.14)     .1196                       

(X_U8.15) 3.587E-06                   (X_U8.31)     .8656                       

(X_U8.32) 865.6E+03                   (X_U8.33)     .8672                       

(X_U8.34) 867.2E+03                   (X_U8.35)     .8681                       

(X_U8.36)     .8673                   (X_U8.40)     .8667                       

(X_U8.41)     .8267                   (X_U8.42)     .9067                       

(X_U8.45)     .8657                   (X_U8.60)    -.5832                       

(X_U8.61)    0.0000                   (X_U8.62)    0.0000                       

(X_U8.98)    0.0000                   (X_U1.DIS)    0.0000                      

(X_U1.DRVA)    0.0000                 (X_U1.DRVB)    5.0000                     

(X_U1.NO_DT)    0.0000                (X_U1.PWMIN)    0.0000                    

(X_U1.UVLO1)    5.0000                (X_U1.UVLO2)    0.0000                    

(X_U1.INA_OK) 2.101E-09               (X_U1.INB_OK)    5.0000                   

(X_U1.PWMINB)    1.0000               (X_U1.UVLO2B)    5.0000                   

(X_U1.INA_INT)     .1273              (X_U1.INA_OKD) 2.101E-09                  

(X_U1.INA_PRE)    0.0000              (X_U1.INB_OKD)    5.0000                  

(X_U1.INB_PRE)    5.0000              (X_U1.VCCI_INT)    5.0000                 

(X_U1.DRVA_PASS)    0.0000            (X_U1.DRVB_PASS)    5.0000                

(X_U1.FAULT_INP)    5.0000            (X_U1.N16668890)    8.5000                

(X_U1.N16668898)    8.5000            (X_U1.N16669068)    0.0000                

(X_U1.N16669308)     .3911            (X_U1.N16669580) 2.101E-09                

(X_U1.N16669674)    0.0000            (X_U1.N16669834)    2.7000                

(X_U1.N16669842)    2.5000            (X_U1.N16669858)    5.0000                

(X_U1.N16670120)    2.0005            (X_U1.N16670154)    2.0000                

(X_U1.N16670162)    5.0091            (X_U1.N16670228)    5.0000                

(X_U1.N16670408)    0.0000            (X_U1.N16670672)    1.0000                

(X_U1.N16670780)    -.0013            (X_U1.N16670790)    0.0000                

(X_U1.N16670816)    4.9977            (X_U1.N16670888)    8.5000                

(X_U1.N16670896)    8.0000            (X_U1.N16671044)   12.0000                

(X_U1.N16671166)    0.0000            (X_U1.N16671236)    0.0000                

(X_U1.N16671468)    5.0000            (X_U1.N16671552)    1.0660                

(X_U1.N16671580)    2.0000            (X_U1.N16671640)    5.0000                

(X_U1.N16671702)    3.7726            (X_U1.N16671830)     .0198                

(X_U1.N16671850)    0.0000            (X_U1.N16672106)    1.0000                

(X_U1.N16672276)    1.8000            (X_U1.N16672306)    1.8000                

(X_U1.N16672528)     .0018            (X_U1.N16672594)    5.0000                

(X_U1.N16672776)  -18.9330            (X_U1.N16672784)  -10.0730                

(X_U1.N16672968)  -22.0730            (X_U1.N16673112)    5.0000                

(X_U1.N16673358)    0.0000            (X_U1.N16673432)    1.8000                

(X_U1.N16673492)    1.8000            (X_U1.N16673790)     .9982                

(X_U1.N16698404)    5.0000            (X_U1.N16970878)     .3906                

(X_U1.N17051744)    -.9301            (X_U1.N17051757)    0.0000                

(X_U1.N17051771)  -30.9300            (X_U1.N17088411)     .3913                

(X_U1.N17110019)    5.0000            (X_U1.N17110021)    5.0000                

(X_U1.N17110038)    5.3919            (X_U1.N17127259)     .3919                

(X_U1.N17153666)    5.0000            (X_U1.N17167704)  -28.9900                

(X_U1.N17167706)    2.4548            (X_U1.N17196585)    0.0000                

(X_U1.N17198437)    5.0000            (X_U1.N17201974)    5.0000                

(X_U1.N17396123)    5.0001            (X_U1.N17407797) 111.3E-06                

(X_U1.N167201110) 1.379E-24           (X_U1.N167208610)    5.0000               

(X_U1.N167216030)    5.0000           (X_U1.X_U42.YINT)    0.0000               

(X_U1.X_U43.YINT)    5.0000           (X_U1.X_U44.YINT)    5.0000               

(X_U1.X_U54.YINT)    5.0000           (X_U1.X_U61.YINT)    5.0000               

(X_U1.X_U62.YINT)    0.0000           (X_U1.DEAD_THRESH)     .0023              

(X_U1.UVLO1_DELAYED)    5.0000        (X_U1.UVLO2_DELAYED) 10.47E-18            

(X_U1.UVLO2B_DELAYED)    5.0000       

Resuming Simulation with the following settings
ITL4 = 1000
ABSTOL = 1e-006

Convergence problem in transient analysis at Time =  2.034E-06
         Time step =  1.987E-15, minimum allowable step size =  2.000E-15

  These voltages failed to converge:

    V(X_M1.22)                =   230.65mV  \   227.62mV
    V(X_M1.33)                =   214.70mV  \   211.66mV
    V(X_M1.6)                 =   211.33mV  \   208.29mV

  These devices failed to converge:
    X_M2.M2   



  Last node voltages tried were:

 NODE   VOLTAGE     NODE   VOLTAGE     NODE   VOLTAGE     NODE   VOLTAGE


(   5V)    5.0000  (   HO)     .3911  (   LO)  -22.0730  (   VO)-1.365E-06      

(   VS)     .3919  (  -5V)   -5.0000  (  15V)   15.0000  (  VCC)   30.0000      

(  VEE)  -30.0000  ( -15V)  -15.0000  (N29886)     .3906 (N29904)  -17.9920     

(N29996)  -18.0000 (N30086)    0.0000 (N30110)    0.0000 (N30164)    0.0000     

(N30196)    0.0000 (N30252)    4.9977 (N31116)     .3899 (N31122)     .3890     

(N31336)  -28.3330 (N31342)  -28.3060 (N32061)     .0017 (N32247)     .1205     

(N32277)     .1402 (N36108)    -.0024 (N36228)     .1187 (N37031)     .1266     

(PWM_IN)     .1273 (VERROR)     .8657 (X_M1.4)    3.1450 (X_M1.5)   30.1570     

(X_M1.6)     .2113 (X_M2.4)  -26.4480 (X_M2.5)     .5593 (X_M2.6)  -29.3810     

(X_U4.3)     .0048 (X_U4.4)   14.4110 (X_U4.5)   14.4090 (X_U4.6)    -.7584     

(X_U4.7)    -.7514 (X_U4.8)   -1.3234 (X_U4.9)    -.0034 (X_U7.7)    1.9752     

(X_U7.8)  -14.4170 (X_U7.9)  -14.2380 (X_U8.3)     .1211 (X_U8.4)   14.4110     

(X_U8.5)   14.4090 (X_U8.6)    -.6373 (X_U8.7)    -.6351 (X_U8.8)   -1.2047     

(X_U8.9)     .8664 (VTRIANG)     .9418                   (X_M1.11)   30.1570    

(X_M1.12)   30.1570                   (X_M1.22)     .2307                       

(X_M1.33)     .2147                   (X_M2.11)     .5592                       

(X_M2.12)     .5592                   (X_M2.22)  -29.2750                       

(X_M2.33)  -29.3900                   (X_U4.10)   13.1700                       

(X_U4.11)  -13.1700                   (X_U4.14)-362.7E-06                       

(X_U4.15) 262.9E-06                   (X_U4.31)    -.0035                       

(X_U4.32)-3529.1000                   (X_U4.33)    -.0033                       

(X_U4.34)-3319.4000                   (X_U4.35)    -.0018                       

(X_U4.36)    -.0033                   (X_U4.40)    -.0035                       

(X_U4.41)    -.0435                   (X_U4.42)     .0365                       

(X_U4.45)    -.0024                   (X_U4.60)     .5851                       

(X_U4.61)    0.0000                   (X_U4.62)    0.0000                       

(X_U4.98)    0.0000                   (X_U7.10)     .7621                       

(X_U7.11)     .7621                   (X_U7.21)    1.3157                       

(X_U7.22)    1.3918                   (X_U8.10)   13.1700                       

(X_U8.11)  -13.1700                   (X_U8.14)     .1196                       

(X_U8.15) 3.587E-06                   (X_U8.31)     .8656                       

(X_U8.32) 865.6E+03                   (X_U8.33)     .8672                       

(X_U8.34) 867.2E+03                   (X_U8.35)     .8681                       

(X_U8.36)     .8673                   (X_U8.40)     .8667                       

(X_U8.41)     .8267                   (X_U8.42)     .9067                       

(X_U8.45)     .8657                   (X_U8.60)    -.5832                       

(X_U8.61)    0.0000                   (X_U8.62)    0.0000                       

(X_U8.98)    0.0000                   (X_U1.DIS)    0.0000                      

(X_U1.DRVA)    0.0000                 (X_U1.DRVB)    5.0000                     

(X_U1.NO_DT)    0.0000                (X_U1.PWMIN)    0.0000                    

(X_U1.UVLO1)    5.0000                (X_U1.UVLO2)    0.0000                    

(X_U1.INA_OK) 2.101E-09               (X_U1.INB_OK)    5.0000                   

(X_U1.PWMINB)    1.0000               (X_U1.UVLO2B)    5.0000                   

(X_U1.INA_INT)     .1273              (X_U1.INA_OKD) 2.101E-09                  

(X_U1.INA_PRE)    0.0000              (X_U1.INB_OKD)    5.0000                  

(X_U1.INB_PRE)    5.0000              (X_U1.VCCI_INT)    5.0000                 

(X_U1.DRVA_PASS)    0.0000            (X_U1.DRVB_PASS)    5.0000                

(X_U1.FAULT_INP)    5.0000            (X_U1.N16668890)    8.5000                

(X_U1.N16668898)    8.5000            (X_U1.N16669068)    0.0000                

(X_U1.N16669308)     .3911            (X_U1.N16669580) 2.101E-09                

(X_U1.N16669674)    0.0000            (X_U1.N16669834)    2.7000                

(X_U1.N16669842)    2.5000            (X_U1.N16669858)    5.0000                

(X_U1.N16670120)    2.0005            (X_U1.N16670154)    2.0000                

(X_U1.N16670162)    5.0091            (X_U1.N16670228)    5.0000                

(X_U1.N16670408)    0.0000            (X_U1.N16670672)    1.0000                

(X_U1.N16670780)    -.0013            (X_U1.N16670790)    0.0000                

(X_U1.N16670816)    4.9977            (X_U1.N16670888)    8.5000                

(X_U1.N16670896)    8.0000            (X_U1.N16671044)   12.0000                

(X_U1.N16671166)    0.0000            (X_U1.N16671236)    0.0000                

(X_U1.N16671468)    5.0000            (X_U1.N16671552)    1.0660                

(X_U1.N16671580)    2.0000            (X_U1.N16671640)    5.0000                

(X_U1.N16671702)    3.7726            (X_U1.N16671830)     .0198                

(X_U1.N16671850)    0.0000            (X_U1.N16672106)    1.0000                

(X_U1.N16672276)    1.8000            (X_U1.N16672306)    1.8000                

(X_U1.N16672528)     .0018            (X_U1.N16672594)    5.0000                

(X_U1.N16672776)  -18.9330            (X_U1.N16672784)  -10.0730                

(X_U1.N16672968)  -22.0730            (X_U1.N16673112)    5.0000                

(X_U1.N16673358)    0.0000            (X_U1.N16673432)    1.8000                

(X_U1.N16673492)    1.8000            (X_U1.N16673790)     .9982                

(X_U1.N16698404)    5.0000            (X_U1.N16970878)     .3906                

(X_U1.N17051744)    -.9301            (X_U1.N17051757)    0.0000                

(X_U1.N17051771)  -30.9300            (X_U1.N17088411)     .3913                

(X_U1.N17110019)    5.0000            (X_U1.N17110021)    5.0000                

(X_U1.N17110038)    5.3919            (X_U1.N17127259)     .3919                

(X_U1.N17153666)    5.0000            (X_U1.N17167704)  -28.9900                

(X_U1.N17167706)    2.4548            (X_U1.N17196585)    0.0000                

(X_U1.N17198437)    5.0000            (X_U1.N17201974)    5.0000                

(X_U1.N17396123)    5.0001            (X_U1.N17407797) 111.3E-06                

(X_U1.N167201110) 1.379E-24           (X_U1.N167208610)    5.0000               

(X_U1.N167216030)    5.0000           (X_U1.X_U42.YINT)    0.0000               

(X_U1.X_U43.YINT)    5.0000           (X_U1.X_U44.YINT)    5.0000               

(X_U1.X_U54.YINT)    5.0000           (X_U1.X_U61.YINT)    5.0000               

(X_U1.X_U62.YINT)    0.0000           (X_U1.DEAD_THRESH)     .0023              

(X_U1.UVLO1_DELAYED)    5.0000        (X_U1.UVLO2_DELAYED) 10.47E-18            

(X_U1.UVLO2B_DELAYED)    5.0000       

Resuming Simulation with the following settings
RELTOL = 0.0086

Convergence problem in transient analysis at Time =  2.442E-06
         Time step =  1.174E-15, minimum allowable step size =  2.000E-15

  These supply currents failed to converge:

    I(X_U1.E_E15)             =  -600.61nA  \   486.60nA
    I(V_V1)                   =   120.53mA  \   -1.549mA

  These devices failed to converge:
    D_D4      X_U1.X_M15.m1 X_U1.X_M14.m1 



  Last node voltages tried were:

 NODE   VOLTAGE     NODE   VOLTAGE     NODE   VOLTAGE     NODE   VOLTAGE


(   5V)    5.0000  (   HO)   20.8840  (   LO)  -30.1530  (   VO)    -.0549      

(   VS)   20.8660  (  -5V)   -5.0000  (  15V)   15.0000  (  VCC)   30.0000      

(  VEE)  -30.0000  ( -15V)  -15.0000  (N29886)   20.9680 (N29904)  -18.0030     

(N29996)  -18.0000 (N30086)    0.0000 (N30110)    0.0000 (N30164)    0.0000     

(N30196)    0.0000 (N30252)    4.9977 (N31116)   20.9850 (N31122)   20.9860     

(N31336)  -30.2480 (N31342)  -30.1130 (N32061)    1.0412 (N32247)     .1482     

(N32277)     .1681 (N36108)    1.0961 (N36228)     .1642 (N37031)     .1228     

(PWM_IN)     .1235 (VERROR)     .6647 (X_M1.4)   22.8200 (X_M1.5)   29.9990     

(X_M1.6)   21.0500 (X_M2.4)  -26.4010 (X_M2.5)   20.8800 (X_M2.6)  -30.1680     

(X_U4.3)    1.0329 (X_U4.4)   14.3790 (X_U4.5)   14.4410 (X_U4.6)     .3386     

(X_U4.7)     .2782 (X_U4.8)    -.2601 (X_U4.9)    1.1133 (X_U7.7)    1.7755     

(X_U7.8)-1238.6000 (X_U7.9)  -14.2380 (X_U8.3)     .1487 (X_U8.4)   14.4020     

(X_U8.5)   14.4180 (X_U8.6)    -.5923 (X_U8.7)    -.6071 (X_U8.8)   -1.1682     

(X_U8.9)     .6600 (VTRIANG)    1.4311                   (X_M1.11)   29.9990    

(X_M1.12)   29.9990                   (X_M1.22)   20.9860                       

(X_M1.33)   20.8660                   (X_M2.11)   20.8800                       

(X_M2.12)   20.8800                   (X_M2.22)  -30.1040                       

(X_M2.33)  -29.9890                   (X_U4.10)   13.1700                       

(X_U4.11)  -13.1700                   (X_U4.14)    1.0686                       

(X_U4.15)-879.9E-06                   (X_U4.31)    1.1358                       

(X_U4.32) 1.136E+06                   (X_U4.33)    1.0908                       

(X_U4.34) 1.091E+06                   (X_U4.35)    1.0631                       

(X_U4.36)    1.0863                   (X_U4.40)    1.1035                       

(X_U4.41)    1.0635                   (X_U4.42)    1.1435                       

(X_U4.45)    1.0961                   (X_U4.60)    -.6355                       

(X_U4.61)    0.0000                   (X_U4.62)    0.0000                       

(X_U4.98)    0.0000                   (X_U7.10)     .7622                       

(X_U7.11)     .7622                   (X_U7.21)    1.1147                       

(X_U7.22)    1.8811                   (X_U8.10)   13.1700                       

(X_U8.11)  -13.1700                   (X_U8.14)     .1562                       

(X_U8.15)-3.524E-06                   (X_U8.31)     .6659                       

(X_U8.32) 665.9E+03                   (X_U8.33)     .6541                       

(X_U8.34) 654.1E+03                   (X_U8.35)     .6473                       

(X_U8.36)     .6529                   (X_U8.40)     .6572                       

(X_U8.41)     .6172                   (X_U8.42)     .6972                       

(X_U8.45)     .6647                   (X_U8.60)     .6353                       

(X_U8.61)    0.0000                   (X_U8.62)    0.0000                       

(X_U8.98)    0.0000                   (X_U1.DIS)    0.0000                      

(X_U1.DRVA)    0.0000                 (X_U1.DRVB)    0.0000                     

(X_U1.NO_DT)    0.0000                (X_U1.PWMIN)    0.0000                    

(X_U1.UVLO1)    5.0000                (X_U1.UVLO2)    0.0000                    

(X_U1.INA_OK) 1.963E-09               (X_U1.INB_OK)    5.0000                   

(X_U1.PWMINB)    1.0000               (X_U1.UVLO2B)    5.0000                   

(X_U1.INA_INT)     .1235              (X_U1.INA_OKD) 1.963E-09                  

(X_U1.INA_PRE)    0.0000              (X_U1.INB_OKD)    5.0000                  

(X_U1.INB_PRE)    5.0000              (X_U1.VCCI_INT)    5.0000                 

(X_U1.DRVA_PASS)    0.0000            (X_U1.DRVB_PASS)    0.0000                

(X_U1.FAULT_INP)    5.0000            (X_U1.N16668890)    8.5000                

(X_U1.N16668898)    8.5000            (X_U1.N16669068)    0.0000                

(X_U1.N16669308)   20.8840            (X_U1.N16669580) 1.963E-09                

(X_U1.N16669674)    0.0000            (X_U1.N16669834)    2.7000                

(X_U1.N16669842)    2.5000            (X_U1.N16669858)    5.0000                

(X_U1.N16670120)    2.0005            (X_U1.N16670154)    2.0000                

(X_U1.N16670162)    5.0082            (X_U1.N16670228)    5.0000                

(X_U1.N16670408)    0.0000            (X_U1.N16670672)    1.0000                

(X_U1.N16670780)     .1012            (X_U1.N16670790)    0.0000                

(X_U1.N16670816)    4.9977            (X_U1.N16670888)    8.5000                

(X_U1.N16670896)    8.0000            (X_U1.N16671044)   12.0000                

(X_U1.N16671166)    0.0000            (X_U1.N16671236)    0.0000                

(X_U1.N16671468)    5.0000            (X_U1.N16671552)    1.0303                

(X_U1.N16671580)    2.0000            (X_U1.N16671640)    5.0000                

(X_U1.N16671702)    2.5000            (X_U1.N16671830)     .0270                

(X_U1.N16671850)    0.0000            (X_U1.N16672106)    1.0000                

(X_U1.N16672276)    1.8000            (X_U1.N16672306)    1.8000                

(X_U1.N16672528)     .0013            (X_U1.N16672594)    0.0000                

(X_U1.N16672776)  -17.9390            (X_U1.N16672784)  -30.1530                

(X_U1.N16672968)  -30.1530            (X_U1.N16673112)    5.0000                

(X_U1.N16673358)    0.0000            (X_U1.N16673432)    1.8000                

(X_U1.N16673492)    1.8000            (X_U1.N16673790)     .9988                

(X_U1.N16698404)    5.0000            (X_U1.N16970878)   20.9680                

(X_U1.N17051744)    5.0000            (X_U1.N17051757)    5.0000                

(X_U1.N17051771)  -25.0000            (X_U1.N17088411)   20.8790                

(X_U1.N17110019)    5.0000            (X_U1.N17110021)    5.0000                

(X_U1.N17110038)   25.8660            (X_U1.N17127259)   20.8660                

(X_U1.N17153666)    5.0000            (X_U1.N17167704)  -30.0000                

(X_U1.N17167706)    5.0000            (X_U1.N17196585)    0.0000                

(X_U1.N17198437)    5.0000            (X_U1.N17201974)    5.0000                

(X_U1.N17396123)    5.0001            (X_U1.N17407797) 242.4E-06                

(X_U1.N167201110) 1.372E-24           (X_U1.N167208610)    5.0000               

(X_U1.N167216030)    5.0000           (X_U1.X_U42.YINT)    0.0000               

(X_U1.X_U43.YINT)    5.0000           (X_U1.X_U44.YINT)    5.0000               

(X_U1.X_U54.YINT)    5.0000           (X_U1.X_U61.YINT)    5.0000               

(X_U1.X_U62.YINT)    5.0000           (X_U1.DEAD_THRESH)     .0023              

(X_U1.UVLO1_DELAYED)    5.0000        (X_U1.UVLO2_DELAYED) 10.41E-18            

(X_U1.UVLO2B_DELAYED)    5.0000       

Resuming Simulation with the following settings
ITL4 = 1000
RELTOL = 0.05

Convergence problem in transient analysis at Time =  2.442E-06
         Time step =  1.174E-15, minimum allowable step size =  2.000E-15

  These voltages failed to converge:

    V(N31336)                 =    -32.28V  \    -30.11V
    V(LO)                     =    -32.20V  \    -30.02V
    V(X_U1.N16672784)         =    -32.20V  \    -30.02V
    V(X_U1.N16672968)         =    -32.73V  \    -30.01V

  These supply currents failed to converge:

    I(V_V1)                   =  -191.57mA  \   -1.526mA

  These devices failed to converge:
    X_U1.E_ABM28 X_U1.X_M15.m1 X_U1.X_M14.m1 



  Last node voltages tried were:

 NODE   VOLTAGE     NODE   VOLTAGE     NODE   VOLTAGE     NODE   VOLTAGE


(   5V)    5.0000  (   HO)   20.8840  (   LO)  -32.1950  (   VO)    -.0549      

(   VS)   20.8670  (  -5V)   -5.0000  (  15V)   15.0000  (  VCC)   30.0000      

(  VEE)  -30.0000  ( -15V)  -15.0000  (N29886)   20.9680 (N29904)  -18.0030     

(N29996)  -18.0000 (N30086)    0.0000 (N30110)    0.0000 (N30164)    0.0000     

(N30196)    0.0000 (N30252)    4.9977 (N31116)   20.9860 (N31122)   20.9860     

(N31336)  -32.2760 (N31342)  -30.1130 (N32061)    1.0412 (N32247)     .1482     

(N32277)     .1681 (N36108)    1.0961 (N36228)     .1642 (N37031)     .1228     

(PWM_IN)     .1235 (VERROR)     .6647 (X_M1.4)   22.8220 (X_M1.5)   30.0010     

(X_M1.6)   21.0530 (X_M2.4)  -26.4130 (X_M2.5)   20.8690 (X_M2.6)  -30.1790     

(X_U4.3)    1.0329 (X_U4.4)   14.3790 (X_U4.5)   14.4410 (X_U4.6)     .3386     

(X_U4.7)     .2782 (X_U4.8)    -.2601 (X_U4.9)    1.1133 (X_U7.7)    1.7755     

(X_U7.8)-1238.6000 (X_U7.9)  -14.2380 (X_U8.3)     .1487 (X_U8.4)   14.4020     

(X_U8.5)   14.4180 (X_U8.6)    -.5923 (X_U8.7)    -.6071 (X_U8.8)   -1.1682     

(X_U8.9)     .6600 (VTRIANG)    1.4311                   (X_M1.11)   30.0010    

(X_M1.12)   30.0010                   (X_M1.22)   20.9880                       

(X_M1.33)   20.8680                   (X_M2.11)   20.8690                       

(X_M2.12)   20.8690                   (X_M2.22)  -30.1160                       

(X_M2.33)  -30.0000                   (X_U4.10)   13.1700                       

(X_U4.11)  -13.1700                   (X_U4.14)    1.0686                       

(X_U4.15)-878.3E-06                   (X_U4.31)    1.1358                       

(X_U4.32) 1.136E+06                   (X_U4.33)    1.0908                       

(X_U4.34) 1.091E+06                   (X_U4.35)    1.0631                       

(X_U4.36)    1.0863                   (X_U4.40)    1.1035                       

(X_U4.41)    1.0635                   (X_U4.42)    1.1435                       

(X_U4.45)    1.0961                   (X_U4.60)    -.6355                       

(X_U4.61)    0.0000                   (X_U4.62)    0.0000                       

(X_U4.98)    0.0000                   (X_U7.10)     .7622                       

(X_U7.11)     .7622                   (X_U7.21)    1.1147                       

(X_U7.22)    1.8811                   (X_U8.10)   13.1700                       

(X_U8.11)  -13.1700                   (X_U8.14)     .1562                       

(X_U8.15)-3.524E-06                   (X_U8.31)     .6659                       

(X_U8.32) 665.9E+03                   (X_U8.33)     .6541                       

(X_U8.34) 654.1E+03                   (X_U8.35)     .6473                       

(X_U8.36)     .6529                   (X_U8.40)     .6572                       

(X_U8.41)     .6172                   (X_U8.42)     .6972                       

(X_U8.45)     .6647                   (X_U8.60)     .6353                       

(X_U8.61)    0.0000                   (X_U8.62)    0.0000                       

(X_U8.98)    0.0000                   (X_U1.DIS)    0.0000                      

(X_U1.DRVA)    0.0000                 (X_U1.DRVB)    0.0000                     

(X_U1.NO_DT)    0.0000                (X_U1.PWMIN)    0.0000                    

(X_U1.UVLO1)    5.0000                (X_U1.UVLO2)    0.0000                    

(X_U1.INA_OK) 1.963E-09               (X_U1.INB_OK)    5.0000                   

(X_U1.PWMINB)    1.0000               (X_U1.UVLO2B)    5.0000                   

(X_U1.INA_INT)     .1235              (X_U1.INA_OKD) 1.963E-09                  

(X_U1.INA_PRE)    0.0000              (X_U1.INB_OKD)    5.0000                  

(X_U1.INB_PRE)    5.0000              (X_U1.VCCI_INT)    5.0000                 

(X_U1.DRVA_PASS)    0.0000            (X_U1.DRVB_PASS)    0.0000                

(X_U1.FAULT_INP)    5.0000            (X_U1.N16668890)    8.5000                

(X_U1.N16668898)    8.5000            (X_U1.N16669068)    0.0000                

(X_U1.N16669308)   20.8840            (X_U1.N16669580) 1.963E-09                

(X_U1.N16669674)    0.0000            (X_U1.N16669834)    2.7000                

(X_U1.N16669842)    2.5000            (X_U1.N16669858)    5.0000                

(X_U1.N16670120)    2.0005            (X_U1.N16670154)    2.0000                

(X_U1.N16670162)    5.0082            (X_U1.N16670228)    5.0000                

(X_U1.N16670408)    0.0000            (X_U1.N16670672)    1.0000                

(X_U1.N16670780)     .1012            (X_U1.N16670790)    0.0000                

(X_U1.N16670816)    4.9977            (X_U1.N16670888)    8.5000                

(X_U1.N16670896)    8.0000            (X_U1.N16671044)   12.0000                

(X_U1.N16671166)    0.0000            (X_U1.N16671236)    0.0000                

(X_U1.N16671468)    5.0000            (X_U1.N16671552)    1.0303                

(X_U1.N16671580)    2.0000            (X_U1.N16671640)    5.0000                

(X_U1.N16671702)    2.5000            (X_U1.N16671830)     .0270                

(X_U1.N16671850)    0.0000            (X_U1.N16672106)    1.0000                

(X_U1.N16672276)    1.8000            (X_U1.N16672306)    1.8000                

(X_U1.N16672528)     .0013            (X_U1.N16672594)    0.0000                

(X_U1.N16672776)  -18.7650            (X_U1.N16672784)  -32.1950                

(X_U1.N16672968)  -32.7300            (X_U1.N16673112)    5.0000                

(X_U1.N16673358)    0.0000            (X_U1.N16673432)    1.8000                

(X_U1.N16673492)    1.8000            (X_U1.N16673790)     .9988                

(X_U1.N16698404)    5.0000            (X_U1.N16970878)   20.9680                

(X_U1.N17051744)    5.0000            (X_U1.N17051757)    5.0000                

(X_U1.N17051771)  -25.0000            (X_U1.N17088411)   20.8800                

(X_U1.N17110019)    5.0000            (X_U1.N17110021)    5.0000                

(X_U1.N17110038)   25.8670            (X_U1.N17127259)   20.8670                

(X_U1.N17153666)    5.0000            (X_U1.N17167704)  -30.0000                

(X_U1.N17167706)    5.0000            (X_U1.N17196585)    0.0000                

(X_U1.N17198437)    5.0000            (X_U1.N17201974)    5.0000                

(X_U1.N17396123)    5.0001            (X_U1.N17407797) 242.4E-06                

(X_U1.N167201110) 1.372E-24           (X_U1.N167208610)    5.0000               

(X_U1.N167216030)    5.0000           (X_U1.X_U42.YINT)    0.0000               

(X_U1.X_U43.YINT)    5.0000           (X_U1.X_U44.YINT)    5.0000               

(X_U1.X_U54.YINT)    5.0000           (X_U1.X_U61.YINT)    5.0000               

(X_U1.X_U62.YINT)    5.0000           (X_U1.DEAD_THRESH)     .0023              

(X_U1.UVLO1_DELAYED)    5.0000        (X_U1.UVLO2_DELAYED) 10.41E-18            

(X_U1.UVLO2B_DELAYED)    5.0000       

Resuming Simulation with the following settings
ITL4 = 125


**** 04/04/20 17:47:58 ****** PSpice 17.2.0 (March 2016) ****** ID# 0 ********

 ** Profile: "SCHEMATIC1-tran"  [ C:\Users\emanu\Desktop\DCE-GRUPO10\REALIMENTADOR\PSpice\realimentador-pspicefiles\schematic1\tran.s


 ****     FOURIER ANALYSIS                 TEMPERATURE =   27.000 DEG C


******************************************************************************



FOURIER COMPONENTS OF TRANSIENT RESPONSE V(VO)



 DC COMPONENT =   7.7203E-02

 HARMONIC   FREQUENCY     FOURIER     NORMALIZED     PHASE     NORMALIZED
    NO         (HZ)      COMPONENT     COMPONENT     (DEG)     PHASE (DEG)

     1    1.0000E+04   2.2051E+01   1.0000E+00  -1.5441E+01   0.0000E+00
     2    2.0000E+04   1.8841E-02   8.5441E-04   7.8341E+01   1.0922E+02
     3    3.0000E+04   2.4269E-02   1.1006E-03   1.5121E+02   1.9754E+02
     4    4.0000E+04   9.0251E-03   4.0928E-04   1.4666E+02   2.0842E+02
     5    5.0000E+04   5.5532E-03   2.5183E-04   1.0271E+02   1.7991E+02
     6    6.0000E+04   4.9566E-03   2.2478E-04  -1.0746E+02  -1.4821E+01


     TOTAL HARMONIC DISTORTION =   1.4909E-01 PERCENT


          JOB CONCLUDED
 AutoConverge Simulator Options
 ITL1 = 150
 ITL2 = 20
 ITL4 = 100
 RELTOL = 0.05
 ABSTOL = 1e-006
 VNTOL = 1e-006
 PIVTOL = 1e-013

**** 04/04/20 17:47:58 ****** PSpice 17.2.0 (March 2016) ****** ID# 0 ********

 ** Profile: "SCHEMATIC1-tran"  [ C:\Users\emanu\Desktop\DCE-GRUPO10\REALIMENTADOR\PSpice\realimentador-pspicefiles\schematic1\tran.s


 ****     JOB STATISTICS SUMMARY


******************************************************************************



  Total job time (using Solver 1)   =       84.05
