
**** 05/27/20 20:07:46 ****** PSpice 17.2.0 (March 2016) ****** ID# 0 ********

 ** Profile: "SCHEMATIC1-tran"  [ C:\Users\Comumar\Desktop\Fiuba\Circuitos 2\NUEVO\DCE-GRUPO10\REALIMENTADOR\PSpice\realimentador-psp


 ****     CIRCUIT DESCRIPTION


******************************************************************************




** Creating circuit file "tran.cir" 
** WARNING: THIS AUTOMATICALLY GENERATED FILE MAY BE OVERWRITTEN BY SUBSEQUENT SIMULATIONS

*Libraries: 
* Profile Libraries :
* Local Libraries :
.LIB "../../../lib/ucc20520_pspice_trans/ucc20520_trans.lib" 
* From [PSPICE NETLIST] section of C:\Cadence\SPB_Data\cdssetup\OrCAD_PSpice\17.2.0\PSpice.ini file:
.lib "nom.lib" 

*Analysis directives: 
.TRAN  0 10.5m 1.5m 
.FOUR 1k 5 V([VO]) 
.OPTIONS ADVCONV
.OPTIONS SOLVER= 1
.OPTIONS METHOD= Default
.OPTIONS THREADS= 8
.OPTIONS SPEED_LEVEL= 0
.AUTOCONVERGE ITL1=1000 ITL2=1000 ITL4=1000 RELTOL=0.05 ABSTOL=1.0E-6 VNTOL=.001 PIVTOL=1.0E-10 
.PROBE64 V(alias(*)) I(alias(*)) W(alias(*)) D(alias(*)) NOISE(alias(*)) 
.INC "..\SCHEMATIC1.net" 



**** INCLUDING SCHEMATIC1.net ****
* source REALIMENTADOR
V_V3         VCC 0 30Vdc
V_V5         5V 0 5Vdc
V_V4         0 VEE 30Vdc
V_V6         N47111 0  
+SIN 0 1.1 3k 0 0 0
V_V7         0 -5V 5Vdc
V_V8         15V 0 15Vdc
V_V9         0 -15V 15Vdc
R_R14         N32061 VS  19k TC=0,0 
R_R15         0 N32061  1k TC=0,0 
R_R16         N47111 N32249  1k TC=0,0 
R_R17         0 N32249  82k TC=0,0 
R_R18         N36230 N36112  1k TC=0,0 
R_R19         N36230 N36267  82k TC=0,0 
V_V2         VTRIANG 0  
+PULSE -1.5 1.5 0 2.499u 2.499u 1n 5u
R_R21         PWM_IN N37031  51 TC=0,0 
C_C13         0 PWM_IN  33p  TC=0,0 
R_R20         N37031 5V  1k TC=0,0 
X_U7         N36267 VTRIANG 15V -15V N37031 0 LM311 
C_C6         VS N40177  100n  TC=0,0 
C_C3         VEE N40287  10u  TC=0,0 
R_R2         N40287 N40195  10 TC=0,0 
R_R8         N40377 0  1 TC=0,0 
R_R11         0 N40401  1 TC=0,0 
C_C4         VEE N40287  220n  TC=0,0 
R_R9         N40455 0  1 TC=0,0 
D_D6         N40195 N40177 D1N4148 
R_R1         0 N40543  2.2k TC=0,0 
C_C1         0 N40543  2.2n  TC=0,0 
R_R10         0 N40487  1 TC=0,0 
X_U1         0 N40543 0 N40401 N40487 N40455 N40377 HO LO PWM_IN 5V 5V N40177
+  N40287 VS VEE UCC20520_TRANS
C_C5         VS N40177  1u  TC=0,0 
V_V1         N40287 VEE 12Vdc
C_C2         VEE N40287  10u  TC=0,0 
C_C8         VEE N41698  1n  TC=0,0 
D_D3         N41468 HO MURS320T3G 
X_M1         VCC N41474 VS PHB27NQ10T/PLP
X_M2         VS N41698 VEE PHB27NQ10T/PLP
R_R4         HO N41474  3.3 TC=0,0 
R_R3         LO N41698  3.3 TC=0,0 
L_L1         VS VO  33u  
C_C7         VS N41474  1n  TC=0,0 
R_R6         N41692 N41698  1.2 TC=0,0 
D_D4         N41692 LO MURS320T3G 
R_R5         N41468 N41474  1.2 TC=0,0 
R_R7         0 VO  8 TC=0,0 
C_C9         0 VO  330n  TC=0,0 
X_U9         N32249 N36230 15V -15V N36267 AD817/AD
X_U11         N32061 N36112 15V -15V N36112 AD817/AD
C_C15         N36230 N36267  220p  TC=0,0 
C_C16         0 N32249  220p  TC=0,0 

**** RESUMING tran.cir ****
.END

**** 05/27/20 20:07:46 ****** PSpice 17.2.0 (March 2016) ****** ID# 0 ********

 ** Profile: "SCHEMATIC1-tran"  [ C:\Users\Comumar\Desktop\Fiuba\Circuitos 2\NUEVO\DCE-GRUPO10\REALIMENTADOR\PSpice\realimentador-psp


 ****     Diode MODEL PARAMETERS


******************************************************************************




               D1N4148         MURS320T3G      X_U7.dx         X_M1.Dbody      
          IS    2.682000E-09   23.789000E-09  800.000000E-18   10.000000E-15 
           N    1.836           1.6119                           .85         
         ISR    1.565000E-09   19.406000E-09                                 
          NR                    3.5766                                       
         IKF     .04417        61.67                            1.000000E+03 
          BV  100             200                             100            
         IBV  100.000000E-06  800.000000E-09                  250.000000E-06 
          RS     .5664          8.451400E-03                    8.300000E-03 
          TT   11.540000E-09   35.000000E-09                   60.000000E-09 
         CJO    4.000000E-12  137.580000E-12                                 
          VJ     .5             1.4981                           .4          
           M     .3333           .49862                                      
          EG                    1.0274                                       
         XTI                    5.000000E-09                                 


               X_M2.Dbody      X_U9.DX         X_U11.DX        X_U1.X_U48.dd   
          IS   10.000000E-15   10.000000E-15   10.000000E-15   10.000000E-15 
           N     .85                                            1.000000E-03 
         IKF    1.000000E+03                                                 
          BV  100                                                            
         IBV  250.000000E-06                                                 
          RS    8.300000E-03                                                 
          TT   60.000000E-09                                                 
          VJ     .4                                                          


               X_U1.X_U40.dd   X_U1.X_U47.dd   X_U1.X_U57.dd   X_U1.X_U55.dd   
          IS   10.000000E-15   10.000000E-15   10.000000E-15   10.000000E-15 
           N    1.000000E-03    1.000000E-03    1.000000E-03    1.000000E-03 


               X_U1.X_U33.dd   X_U1.X_U37.dd   X_U1.X_U38.dd   X_U1.X_U35.dd   
          IS   10.000000E-15   10.000000E-15   10.000000E-15   10.000000E-15 
           N    1.000000E-03    1.000000E-03    1.000000E-03    1.000000E-03 


               X_U1.X_U56.dd   X_U1.X_U59.dd   X_U1.X_U60.dd   X_U1.X_U39.dd   
          IS   10.000000E-15   10.000000E-15   10.000000E-15   10.000000E-15 
           N    1.000000E-03    1.000000E-03    1.000000E-03    1.000000E-03 


**** 05/27/20 20:07:46 ****** PSpice 17.2.0 (March 2016) ****** ID# 0 ********

 ** Profile: "SCHEMATIC1-tran"  [ C:\Users\Comumar\Desktop\Fiuba\Circuitos 2\NUEVO\DCE-GRUPO10\REALIMENTADOR\PSpice\realimentador-psp


 ****     BJT MODEL PARAMETERS


******************************************************************************




               X_U7.qin        X_U7.qmi        X_U7.qmo        X_U7.qoc        
               PNP             NPN             NPN             NPN             
       LEVEL    1               1               1               1            
          IS  800.000000E-18  800.000000E-18  800.000000E-18  800.000000E-18 
          BF  500               1.002000E+03    1.000000E+03  206.900000E+03 
          NF    1               1               1               1            
          BR    1               1               1               1            
          NR    1               1               1               1            
         ISS    0               0               0               0            
          RE    0               0               0               0            
          RC    0               0               0               0            
         CJE    0               0               0               0            
         VJE     .75             .75             .75             .75         
         CJC    0               0               1.000000E-15    1.000000E-15 
         VJC     .75             .75             .75             .75         
         MJC     .33             .33             .33             .33         
        XCJC    1               1               1               1            
         CJS    0               0               0               0            
         VJS     .75             .75             .75             .75         
          TF                                                    7.855000E-12 
          TR                                  124.200000E-09   83.830000E-09 
          KF    0               0               0               0            
          AF    1               1               1               1            
          CN    2.2             2.42            2.42            2.42         
           D     .52             .87             .87             .87         


               X_U9.QN         X_U11.QN        
               NPN             NPN             
       LEVEL    1               1            
          IS  100.000000E-18  100.000000E-18 
          BF  151.52          151.52         
          NF    1               1            
          BR    1               1            
          NR    1               1            
         ISS    0               0            
          RE    0               0            
          RC    0               0            
         CJE    0               0            
         VJE     .75             .75         
         CJC    0               0            
         VJC     .75             .75         
         MJC     .33             .33         
        XCJC    1               1            
         CJS    0               0            
         VJS     .75             .75         
          KF    0               0            
          AF    1               1            
          CN    2.42            2.42         
           D     .87             .87         


**** 05/27/20 20:07:46 ****** PSpice 17.2.0 (March 2016) ****** ID# 0 ********

 ** Profile: "SCHEMATIC1-tran"  [ C:\Users\Comumar\Desktop\Fiuba\Circuitos 2\NUEVO\DCE-GRUPO10\REALIMENTADOR\PSpice\realimentador-psp


 ****     MOSFET MODEL PARAMETERS


******************************************************************************




               X_M1.MOST1      X_M1.MOST2      X_M2.MOST1      X_M2.MOST2      
               NMOS            NMOS            NMOS            NMOS            
       LEVEL    3               3               3               3            
           L  300.000000E-09  300.000000E-09  300.000000E-09  300.000000E-09 
           W     .1              .1              .1              .1          
         VTO    3.73           -2.7             3.73           -2.7          
          KP   40.800000E-06   40.800000E-06   40.800000E-06   40.800000E-06 
       GAMMA    0               0               0               0            
         PHI     .6              .6              .6              .6          
      LAMBDA    0               0               0               0            
          RD                    1.000000E+03                    1.000000E+03 
          RS                    1.000000E+03                    1.000000E+03 
          IS    0               0               0               0            
          JS    0               0               0               0            
          PB     .8              .8              .8              .8          
        PBSW     .8              .8              .8              .8          
          CJ    0               0               0               0            
        CJSW    0               0               0               0            
        CGSO    0               0               0               0            
        CGDO    0               0               0               0            
        CGBO    0               0               0               0            
         NFS    1.100000E+12                    1.100000E+12                 
         TOX  100.000000E-09  100.000000E-09  100.000000E-09  100.000000E-09 
          XJ  500.000000E-09  500.000000E-09  500.000000E-09  500.000000E-09 
          UO  650             650             650             650            
       UCRIT   10.000000E+03   10.000000E+03   10.000000E+03   10.000000E+03 
       DELTA     .1              .1              .1              .1          
         ETA  100.000000E-06  100.000000E-06  100.000000E-06  100.000000E-06 
       KAPPA     .1              .1              .1              .1          
      DIOMOD    1               1               1               1            
         VFB    0               0               0               0            
        LETA    0               0               0               0            
        WETA    0               0               0               0            
          U0    0               0               0               0            
        TEMP    0               0               0               0            
         VDD    5               5               5               5            
       XPART    0               0               0               0            


               X_U1.X_M13._mod X_U1.X_M15._mod X_U1.X_M14._mod X_U1.X_M12._mod 
               NMOS            NMOS            NMOS            NMOS            
       LEVEL    1               1               1               1            
           L   10.000000E-09   10.000000E-09   10.000000E-09   10.000000E-09 
           W    2.4             2.4              .285            .285        
         VTO    0               0               0               0            
          KP    2.000000E-09    2.000000E-09    2.000000E-09    2.000000E-09 
       GAMMA    0               0               0               0            
         PHI     .6              .6              .6              .6          
      LAMBDA    0               0               0               0            
          IS   10.000000E-15   10.000000E-15   10.000000E-15   10.000000E-15 
          JS    0               0               0               0            
           N    2.5             2.5             2.5             2.5          
          PB     .8              .8              .8              .8          
        PBSW     .8              .8              .8              .8          
          CJ    0               0               0               0            
        CJSW    0               0               0               0            
        CGSO    0               0               0               0            
        CGDO    0               0               0               0            
        CGBO    0               0               0               0            
         TOX    0               0               0               0            
          XJ    0               0               0               0            
       UCRIT   10.000000E+03   10.000000E+03   10.000000E+03   10.000000E+03 
      DIOMOD    1               1               1               1            
         VFB    0               0               0               0            
        LETA    0               0               0               0            
        WETA    0               0               0               0            
          U0    0               0               0               0            
        TEMP    0               0               0               0            
         VDD    5               5               5               5            
       XPART    0               0               0               0            


**** 05/27/20 20:07:46 ****** PSpice 17.2.0 (March 2016) ****** ID# 0 ********

 ** Profile: "SCHEMATIC1-tran"  [ C:\Users\Comumar\Desktop\Fiuba\Circuitos 2\NUEVO\DCE-GRUPO10\REALIMENTADOR\PSpice\realimentador-psp


 ****     Resistor MODEL PARAMETERS


******************************************************************************




               X_M1.Rtemp      X_M2.Rtemp      
           R    1               1            
         TC1    6.810000E-03    6.810000E-03 
         TC2   28.600000E-06   28.600000E-06 


**** 05/27/20 20:07:46 ****** PSpice 17.2.0 (March 2016) ****** ID# 0 ********

 ** Profile: "SCHEMATIC1-tran"  [ C:\Users\Comumar\Desktop\Fiuba\Circuitos 2\NUEVO\DCE-GRUPO10\REALIMENTADOR\PSpice\realimentador-psp


 ****     Voltage Controlled Switch MODEL PARAMETERS


******************************************************************************




               X_U1.X_S1._S1   X_U1.X_S6._S6   X_U1.X_S3._S3   X_U1.X_S4._S4   
         RON     .01            5.000000E-03   25               5.000000E-03 
        ROFF    1.000000E+09    1.000000E+06    1.000000E+06    1.000000E+06 
         VON    4               4.5             4.5             4.5          
        VOFF    1                .5              .5              .5          


               X_U1.X_S5._S5   X_U1.X_S2._S2   
         RON   25                .01         
        ROFF    1.000000E+06    1.000000E+09 
         VON    4.5             4            
        VOFF     .5             1            


**** 05/27/20 20:07:46 ****** PSpice 17.2.0 (March 2016) ****** ID# 0 ********

 ** Profile: "SCHEMATIC1-tran"  [ C:\Users\Comumar\Desktop\Fiuba\Circuitos 2\NUEVO\DCE-GRUPO10\REALIMENTADOR\PSpice\realimentador-psp


 ****     INITIAL TRANSIENT SOLUTION       TEMPERATURE =   27.000 DEG C


******************************************************************************



 NODE   VOLTAGE     NODE   VOLTAGE     NODE   VOLTAGE     NODE   VOLTAGE


(   5V)    5.0000  (   HO)-663.3E-06  (   LO)  -30.0000  (   VO)-1.369E-06      

(   VS)-1.369E-06  (  -5V)   -5.0000  (  15V)   15.0000  (  VCC)   30.0000      

(  VEE)  -30.0000  ( -15V)  -15.0000  (N32061)    -.0031 (N32249)    -.0032     

(N36112)    -.0026 (N36230)    -.0028 (N36267)     .2527 (N37031)    4.9751     

(N40177)    -.0013 (N40195)  -18.0000 (N40287)  -18.0000 (N40377)    0.0000     

(N40401)    0.0000 (N40455)    0.0000 (N40487)    0.0000 (N40543)    4.9977     

(N41468)-663.3E-06 (N41474)-663.3E-06 (N41692)  -30.0000 (N41698)  -30.0000     

(N47111)    0.0000 (PWM_IN)    4.9739 (X_M1.4)    2.9359 (X_M1.5)   30.0000     

(X_M1.6)-663.3E-06 (X_M2.4)  -27.0630 (X_M2.5)-1.369E-06 (X_M2.6)  -30.0000     

(X_U7.7)    -.3892 (X_U7.8)  -14.3500 (X_U7.9)  -14.9820 (X_U9.3)    -.0027     

(X_U9.4)   14.4100 (X_U9.5)   14.4100 (X_U9.6)    -.7589 (X_U9.7)    -.7588     

(X_U9.8)   -1.3274 (X_U9.9)     .2527 (VTRIANG)   -1.5000                       

(X_M1.11)   30.0000                   (X_M1.12)   30.0000                       

(X_M1.22)-663.3E-06                   (X_M1.33)-1.369E-06                       

(X_M2.11)-1.369E-06                   (X_M2.12)-1.369E-06                       

(X_M2.22)  -30.0000                   (X_M2.33)  -30.0000                       

(X_U11.3)    -.0026                   (X_U11.4)   14.4100                       

(X_U11.5)   14.4100                   (X_U11.6)    -.7587                       

(X_U11.7)    -.7587                   (X_U11.8)   -1.3272                       

(X_U11.9)    -.0026                   (X_U7.10)     .0179                       

(X_U7.11)     .0179                   (X_U7.21)     .7027                       

(X_U7.22)   -1.0500                   (X_U9.10)   13.1700                       

(X_U9.11)  -13.1700                   (X_U9.14)    -.0030                       

(X_U9.15)-3.002E-09                   (X_U9.31)     .2527                       

(X_U9.32) 252.7E+03                   (X_U9.33)     .2527                       

(X_U9.34) 252.7E+03                   (X_U9.35)     .2527                       

(X_U9.36)     .2527                   (X_U9.40)     .2527                       

(X_U9.41)     .2127                   (X_U9.42)     .2927                       

(X_U9.45)     .2527                   (X_U9.60)    -.4879                       

(X_U9.61)    0.0000                   (X_U9.62)    0.0000                       

(X_U9.98)    0.0000                   (X_U1.DIS)    0.0000                      

(X_U11.10)   13.1700                  (X_U11.11)  -13.1700                      

(X_U11.14)    -.0029                  (X_U11.15)-2.852E-09                      

(X_U11.31)    -.0026                  (X_U11.32)-2574.3000                      

(X_U11.33)    -.0026                  (X_U11.34)-2574.3000                      

(X_U11.35)    -.0026                  (X_U11.36)    -.0026                      

(X_U11.40)    -.0026                  (X_U11.41)    -.0426                      

(X_U11.42)     .0374                  (X_U11.45)    -.0026                      

(X_U11.60)    -.4907                  (X_U11.61)    0.0000                      

(X_U11.62)    0.0000                  (X_U11.98)    0.0000                      

(X_U1.DRVA)    0.0000                 (X_U1.DRVB)    0.0000                     

(X_U1.NO_DT)    0.0000                (X_U1.PWMIN)    1.0000                    

(X_U1.UVLO1)    5.0000                (X_U1.UVLO2)    0.0000                    

(X_U1.INA_OK)    5.0000               (X_U1.INB_OK)    0.0000                   

(X_U1.PWMINB)    0.0000               (X_U1.UVLO2B)    5.0000                   

(X_U1.INA_INT)    4.9739              (X_U1.INA_OKD)    5.0000                  

(X_U1.INA_PRE)    5.0000              (X_U1.INB_OKD)    0.0000                  

(X_U1.INB_PRE)    0.0000              (X_U1.VCCI_INT)    5.0000                 

(X_U1.DRVA_PASS)    0.0000            (X_U1.DRVB_PASS)    0.0000                

(X_U1.FAULT_INP)    5.0000            (X_U1.N16668890)    8.5000                

(X_U1.N16668898)    8.5000            (X_U1.N16669068)    0.0000                

(X_U1.N16669308)-663.3E-06            (X_U1.N16669580)    5.0000                

(X_U1.N16669674)    0.0000            (X_U1.N16669834)    2.7000                

(X_U1.N16669842)    2.5000            (X_U1.N16669858)    5.0000                

(X_U1.N16670120) 90.87E-06            (X_U1.N16670154)    2.0000                

(X_U1.N16670162)-22.27E-18            (X_U1.N16670228)    0.0000                

(X_U1.N16670408)    0.0000            (X_U1.N16670672)    1.0000                

(X_U1.N16670780)    -.0013            (X_U1.N16670790)    0.0000                

(X_U1.N16670816)    4.9977            (X_U1.N16670888)    8.5000                

(X_U1.N16670896)    8.0000            (X_U1.N16671044)   12.0000                

(X_U1.N16671166)    0.0000            (X_U1.N16671236)    0.0000                

(X_U1.N16671468)    0.0000            (X_U1.N16671552) 8.020E-15                

(X_U1.N16671580)    2.0000            (X_U1.N16671640)    0.0000                

(X_U1.N16671702)    0.0000            (X_U1.N16671830)    5.0000                

(X_U1.N16671850)    0.0000            (X_U1.N16672106)    1.0000                

(X_U1.N16672276)    1.8000            (X_U1.N16672306)    1.0000                

(X_U1.N16672528)    1.0000            (X_U1.N16672594)    0.0000                

(X_U1.N16672776)  -18.0000            (X_U1.N16672784)  -30.0000                

(X_U1.N16672968)  -30.0000            (X_U1.N16673112)    0.0000                

(X_U1.N16673358)    0.0000            (X_U1.N16673432)    1.8000                

(X_U1.N16673492)    1.8000            (X_U1.N16673790)    0.0000                

(X_U1.N16698404)    5.0000            (X_U1.N16970878)    -.0013                

(X_U1.N17051744)    5.0000            (X_U1.N17051757)    5.0000                

(X_U1.N17051771)  -25.0000            (X_U1.N17088411)-501.3E-06                

(X_U1.N17110019)    5.0000            (X_U1.N17110021)    5.0000                

(X_U1.N17110038)    5.0000            (X_U1.N17127259)-1.369E-06                

(X_U1.N17153666)    5.0000            (X_U1.N17167704)  -30.0000                

(X_U1.N17167706)    5.0000            (X_U1.N17196585)    0.0000                

(X_U1.N17198437)    5.0000            (X_U1.N17201974)    5.0000                

(X_U1.N17396123)-15.66E-21            (X_U1.N17407797)    5.0000                

(X_U1.N167201110)-73.22E-21           (X_U1.N167208610)    5.0000               

(X_U1.N167216030)    5.0000           (X_U1.X_U42.YINT)    0.0000               

(X_U1.X_U43.YINT)    5.0000           (X_U1.X_U44.YINT)    5.0000               

(X_U1.X_U54.YINT)    5.0000           (X_U1.X_U61.YINT)    5.0000               

(X_U1.X_U62.YINT)    5.0000           (X_U1.DEAD_THRESH)     .0023              

(X_U1.UVLO1_DELAYED)    5.0000        (X_U1.UVLO2_DELAYED) 10.77E-18            

(X_U1.UVLO2B_DELAYED)    5.0000       




    VOLTAGE SOURCE CURRENTS
    NAME         CURRENT

    V_V3         1.281E-09
    V_V5        -4.797E-03
    V_V4        -8.008E-09
    V_V6        -3.227E-06
    V_V7         0.000E+00
    V_V8        -1.833E-02
    V_V9        -1.833E-02
    V_V2         1.996E-07
    V_V1        -1.212E-03
    X_U7.vi1    -1.569E-11
    X_U7.vi2     1.996E-07
    X_U7.v1     -4.958E-12
    X_U1.V_V8   -4.010E-12
    X_U1.V_V1    0.000E+00
    X_U1.V_V10   0.000E+00
    X_U1.V_V11   0.000E+00
    X_U1.V_V6    0.000E+00
    X_U1.V_V12   0.000E+00
    X_U1.V_V13   0.000E+00
    X_U1.V_V2    0.000E+00
    X_U1.V_V14   0.000E+00
    X_U1.V_V9    0.000E+00
    X_U1.V_V7    0.000E+00
    X_U1.V_V3    0.000E+00
    X_U1.V_V5   -4.543E-02
    X_U9.V1      1.293E-11
    X_U9.V2      1.343E-11
    X_U9.V7     -4.979E-13
    X_U9.V8      1.558E-06
    X_U9.V5     -4.784E-14
    X_U9.V6     -4.790E-14
    X_U11.V1     1.318E-11
    X_U11.V2     1.318E-11
    X_U11.V7    -5.007E-13
    X_U11.V8     1.733E-06
    X_U11.V5    -4.782E-14
    X_U11.V6    -4.790E-14
    X_U1.X_H1.VH_H1   2.272E-03

    TOTAL POWER DISSIPATION   6.79E-01  WATTS

Convergence problem in transient analysis at Time =  1.640E-06
         Time step =  8.782E-15, minimum allowable step size =  10.50E-15

  These voltages failed to converge:

    V(X_M1.22)                =   409.55uV  \  -177.14uV
    V(X_M1.33)                =    1.072mV  \   484.83uV
    V(X_M1.6)                 =   409.55uV  \  -177.15uV
    V(X_M2.11)                =   409.32uV  \    12.56uV
    V(X_M2.5)                 =   409.32uV  \    12.56uV
    V(X_M2.12)                =   409.32uV  \    12.56uV

  These supply currents failed to converge:

    I(X_U1.E_E15)             =   -17.18pA  \    1.945pA
    I(X_U1.E_E27)             =    -32.24A  \    -9.019A
    I(X_U9.EREF)              =   -31.40pA  \   -32.18fA
    I(X_U11.ECM)              =    1.984nA  \    3.010nA
    I(X_M1.L1)                =   -5.235nA  \   -2.543nA
    I(X_M1.L2)                =  -619.57pA  \   636.87pA
    I(X_M1.L3)                =  -735.62pA  \   520.83pA
    I(X_M2.L1)                =    27.20pA  \    1.058nA
    I(X_M2.L2)                =  -931.85pA  \  -450.95pA
    I(X_M2.L3)                =   -1.061nA  \  -579.79pA
    I(V_V3)                   =    5.235nA  \    2.543nA
    I(V_V4)                   =   -3.093uA  \   -3.143uA
    I(V_V1)                   =   -1.205mA  \   -1.207mA
    I(X_U1.V_V5)              =   -27.86uA  \  -257.76pA

  These devices failed to converge:
    D_D3      X_U1.X_U47.d1 X_U1.X_U38.d1 X_U1.E_ABM29 X_U1.G_ABM2I2 
    X_U1.G_ABM2I1 



  Last node voltages tried were:

 NODE   VOLTAGE     NODE   VOLTAGE     NODE   VOLTAGE     NODE   VOLTAGE


(   5V)    5.0000  (   HO)-663.4E-06  (   LO)  -30.0000  (   VO)-1.369E-06      

(   VS)-1.461E-06  (  -5V)   -5.0000  (  15V)   15.0000  (  VCC)   30.0000      

(  VEE)  -30.0000  ( -15V)  -15.0000  (N32061)    -.0031 (N32249)     .0259     

(N36112)    -.0026 (N36230)     .0258 (N36267)     .3731 (N37031)     .1390     

(N40177)    -.0013 (N40195)  -18.0000 (N40287)  -18.0000 (N40377)    0.0000     

(N40401)    0.0000 (N40455)    0.0000 (N40487)    0.0000 (N40543)    4.9977     

(N41468)-663.4E-06 (N41474)-663.4E-06 (N41692)  -30.0000 (N41698)  -30.0000     

(N47111)     .0340 (PWM_IN)     .1407 (X_M1.4)    2.9370 (X_M1.5)   30.0010     

(X_M1.6) 409.5E-06 (X_M2.4)  -27.0630 (X_M2.5) 409.3E-06 (X_M2.6)  -30.0000     

(X_U7.7)    1.4833 (X_U7.8)  -14.4350 (X_U7.9)  -14.2380 (X_U9.3)     .0264     

(X_U9.4)   14.4100 (X_U9.5)   14.4100 (X_U9.6)    -.7303 (X_U9.7)    -.7297     

(X_U9.8)   -1.2985 (X_U9.9)     .3733 (VTRIANG)     .4683                       

(X_M1.11)   30.0010                   (X_M1.12)   30.0010                       

(X_M1.22) 409.5E-06                   (X_M1.33)     .0011                       

(X_M2.11) 409.3E-06                   (X_M2.12) 409.3E-06                       

(X_M2.22)  -30.0000                   (X_M2.33)  -30.0000                       

(X_U11.3)    -.0026                   (X_U11.4)   14.4100                       

(X_U11.5)   14.4100                   (X_U11.6)    -.7587                       

(X_U11.7)    -.7587                   (X_U11.8)   -1.3272                       

(X_U11.9)    -.0028                   (X_U7.10)     .7621                       

(X_U7.11)     .7621                   (X_U7.21)     .8231                       

(X_U7.22)     .9183                   (X_U9.10)   13.1700                       

(X_U9.11)  -13.1700                   (X_U9.14)     .0259                       

(X_U9.15) 1.048E-06                   (X_U9.31)     .3731                       

(X_U9.32) 373.1E+03                   (X_U9.33)     .3735                       

(X_U9.34) 373.5E+03                   (X_U9.35)     .3737                       

(X_U9.36)     .3735                   (X_U9.40)     .3734                       

(X_U9.41)     .3334                   (X_U9.42)     .4134                       

(X_U9.45)     .3731                   (X_U9.60)    -.5477                       

(X_U9.61)    0.0000                   (X_U9.62)    0.0000                       

(X_U9.98)    0.0000                   (X_U1.DIS)    0.0000                      

(X_U11.10)   13.1700                  (X_U11.11)  -13.1700                      

(X_U11.14)    -.0029                  (X_U11.15)-1.984E-09                      

(X_U11.31)    -.0028                  (X_U11.32)-2802.1000                      

(X_U11.33)    -.0028                  (X_U11.34)-2802.5000                      

(X_U11.35)    -.0028                  (X_U11.36)    -.0028                      

(X_U11.40)    -.0028                  (X_U11.41)    -.0428                      

(X_U11.42)     .0372                  (X_U11.45)    -.0026                      

(X_U11.60)     .5419                  (X_U11.61)    0.0000                      

(X_U11.62)    0.0000                  (X_U11.98)    0.0000                      

(X_U1.DRVA)    0.0000                 (X_U1.DRVB)    0.0000                     

(X_U1.NO_DT)    0.0000                (X_U1.PWMIN)    0.0000                    

(X_U1.UVLO1)    5.0000                (X_U1.UVLO2)    0.0000                    

(X_U1.INA_OK)    2.5000               (X_U1.INB_OK)    2.5001                   

(X_U1.PWMINB)    1.0000               (X_U1.UVLO2B)    5.0000                   

(X_U1.INA_INT)     .1407              (X_U1.INA_OKD)    2.5000                  

(X_U1.INA_PRE)    0.0000              (X_U1.INB_OKD)    2.5001                  

(X_U1.INB_PRE)    5.0000              (X_U1.VCCI_INT)    5.0000                 

(X_U1.DRVA_PASS)    5.0000            (X_U1.DRVB_PASS)    0.0000                

(X_U1.FAULT_INP)    5.0000            (X_U1.N16668890)    8.5000                

(X_U1.N16668898)    8.5000            (X_U1.N16669068)    0.0000                

(X_U1.N16669308)-663.4E-06            (X_U1.N16669580)    2.5000                

(X_U1.N16669674)    0.0000            (X_U1.N16669834)    2.7000                

(X_U1.N16669842)    2.5000            (X_U1.N16669858)    5.0000                

(X_U1.N16670120)    2.0008            (X_U1.N16670154)    2.0000                

(X_U1.N16670162)    2.4991            (X_U1.N16670228)    5.0000                

(X_U1.N16670408)    0.0000            (X_U1.N16670672)    1.0000                

(X_U1.N16670780)    -.0013            (X_U1.N16670790)    0.0000                

(X_U1.N16670816)    4.9977            (X_U1.N16670888)    8.5000                

(X_U1.N16670896)    8.0000            (X_U1.N16671044)   12.0000                

(X_U1.N16671166)    0.0000            (X_U1.N16671236)    0.0000                

(X_U1.N16671468)    5.0000            (X_U1.N16671552) 6.575E-09                

(X_U1.N16671580)    2.0000            (X_U1.N16671640)    0.0000                

(X_U1.N16671702)    0.0000            (X_U1.N16671830)    4.7603                

(X_U1.N16671850)    0.0000            (X_U1.N16672106)    1.0000                

(X_U1.N16672276)    1.8000            (X_U1.N16672306)    1.8000                

(X_U1.N16672528)     .0679            (X_U1.N16672594)    0.0000                

(X_U1.N16672776)  -18.0000            (X_U1.N16672784)  -30.0000                

(X_U1.N16672968)  -30.0000            (X_U1.N16673112)    2.5001                

(X_U1.N16673358)    0.0000            (X_U1.N16673432)    1.8000                

(X_U1.N16673492)    1.8000            (X_U1.N16673790)     .9321                

(X_U1.N16698404)    5.0000            (X_U1.N16970878)    -.0013                

(X_U1.N17051744)    5.0000            (X_U1.N17051757)    5.0000                

(X_U1.N17051771)  -25.0000            (X_U1.N17088411)-501.4E-06                

(X_U1.N17110019)    5.0000            (X_U1.N17110021)    5.0000                

(X_U1.N17110038)    5.0000            (X_U1.N17127259)-1.461E-06                

(X_U1.N17153666)    5.0000            (X_U1.N17167704)  -30.0000                

(X_U1.N17167706)    5.0000            (X_U1.N17196585)    0.0000                

(X_U1.N17198437)    5.0000            (X_U1.N17201974)    5.0000                

(X_U1.N17396123)    2.4991            (X_U1.N17407797)    4.6045                

(X_U1.N167201110) 1.387E-24           (X_U1.N167208610)    5.0000               

(X_U1.N167216030)    5.0000           (X_U1.X_U42.YINT)    0.0000               

(X_U1.X_U43.YINT)    5.0000           (X_U1.X_U44.YINT)    5.0000               

(X_U1.X_U54.YINT)    5.0000           (X_U1.X_U61.YINT)    5.0000               

(X_U1.X_U62.YINT)    5.0000           (X_U1.DEAD_THRESH)     .0023              

(X_U1.UVLO1_DELAYED)    5.0000        (X_U1.UVLO2_DELAYED) 10.53E-18            

(X_U1.UVLO2B_DELAYED)    5.0000       

Resuming Simulation with the following settings
ITL4 = 1000
ABSTOL = 1.26e-010
VNTOL = 4.47e-005

Time step =  3.879E-15 is too small in Transient Analysis at
Time =  1.640E-06.  Minimum allowable step size =  10.50E-15.
         The device which is changing too fast is X_U1.C_C33.



  Last node voltages tried were:

 NODE   VOLTAGE     NODE   VOLTAGE     NODE   VOLTAGE     NODE   VOLTAGE


(   5V)    5.0000  (   HO)-663.5E-06  (   LO)  -30.0000  (   VO)-1.369E-06      

(   VS)-1.511E-06  (  -5V)   -5.0000  (  15V)   15.0000  (  VCC)   30.0000      

(  VEE)  -30.0000  ( -15V)  -15.0000  (N32061)    -.0031 (N32249)     .0259     

(N36112)    -.0026 (N36230)     .0258 (N36267)     .3731 (N37031)     .1390     

(N40177)    -.0013 (N40195)  -18.0000 (N40287)  -18.0000 (N40377)    0.0000     

(N40401)    0.0000 (N40455)    0.0000 (N40487)    0.0000 (N40543)    4.9977     

(N41468)-663.5E-06 (N41474)-663.5E-06 (N41692)  -30.0000 (N41698)  -30.0000     

(N47111)     .0340 (PWM_IN)     .1407 (X_M1.4)    2.9357 (X_M1.5)   30.0000     

(X_M1.6)-868.9E-06 (X_M2.4)  -27.0630 (X_M2.5)-29.73E-06 (X_M2.6)  -30.0000     

(X_U7.7)    1.4833 (X_U7.8)  -14.4350 (X_U7.9)  -14.2380 (X_U9.3)     .0264     

(X_U9.4)   14.4100 (X_U9.5)   14.4100 (X_U9.6)    -.7303 (X_U9.7)    -.7297     

(X_U9.8)   -1.2985 (X_U9.9)     .3733 (VTRIANG)     .4683                       

(X_M1.11)   30.0000                   (X_M1.12)   30.0000                       

(X_M1.22)-868.9E-06                   (X_M1.33)-206.9E-06                       

(X_M2.11)-29.73E-06                   (X_M2.12)-29.73E-06                       

(X_M2.22)  -30.0000                   (X_M2.33)  -30.0000                       

(X_U11.3)    -.0026                   (X_U11.4)   14.4100                       

(X_U11.5)   14.4100                   (X_U11.6)    -.7587                       

(X_U11.7)    -.7587                   (X_U11.8)   -1.3272                       

(X_U11.9)    -.0028                   (X_U7.10)     .7621                       

(X_U7.11)     .7621                   (X_U7.21)     .8231                       

(X_U7.22)     .9183                   (X_U9.10)   13.1700                       

(X_U9.11)  -13.1700                   (X_U9.14)     .0259                       

(X_U9.15) 1.048E-06                   (X_U9.31)     .3731                       

(X_U9.32) 373.1E+03                   (X_U9.33)     .3735                       

(X_U9.34) 373.5E+03                   (X_U9.35)     .3737                       

(X_U9.36)     .3735                   (X_U9.40)     .3734                       

(X_U9.41)     .3334                   (X_U9.42)     .4134                       

(X_U9.45)     .3731                   (X_U9.60)    -.5477                       

(X_U9.61)    0.0000                   (X_U9.62)    0.0000                       

(X_U9.98)    0.0000                   (X_U1.DIS)    0.0000                      

(X_U11.10)   13.1700                  (X_U11.11)  -13.1700                      

(X_U11.14)    -.0029                  (X_U11.15)-3.311E-09                      

(X_U11.31)    -.0028                  (X_U11.32)-2802.1000                      

(X_U11.33)    -.0028                  (X_U11.34)-2802.5000                      

(X_U11.35)    -.0028                  (X_U11.36)    -.0028                      

(X_U11.40)    -.0028                  (X_U11.41)    -.0428                      

(X_U11.42)     .0372                  (X_U11.45)    -.0026                      

(X_U11.60)     .5419                  (X_U11.61)    0.0000                      

(X_U11.62)    0.0000                  (X_U11.98)    0.0000                      

(X_U1.DRVA)    0.0000                 (X_U1.DRVB)    0.0000                     

(X_U1.NO_DT)    0.0000                (X_U1.PWMIN)    0.0000                    

(X_U1.UVLO1)    5.0000                (X_U1.UVLO2)    0.0000                    

(X_U1.INA_OK)    2.5000               (X_U1.INB_OK)    2.5000                   

(X_U1.PWMINB)    1.0000               (X_U1.UVLO2B)    5.0000                   

(X_U1.INA_INT)     .1407              (X_U1.INA_OKD)    2.5000                  

(X_U1.INA_PRE)    0.0000              (X_U1.INB_OKD)    2.5000                  

(X_U1.INB_PRE)    5.0000              (X_U1.VCCI_INT)    5.0000                 

(X_U1.DRVA_PASS)    5.0000            (X_U1.DRVB_PASS)    0.0000                

(X_U1.FAULT_INP)    5.0000            (X_U1.N16668890)    8.5000                

(X_U1.N16668898)    8.5000            (X_U1.N16669068)    0.0000                

(X_U1.N16669308)-663.5E-06            (X_U1.N16669580)    2.5000                

(X_U1.N16669674)    0.0000            (X_U1.N16669834)    2.7000                

(X_U1.N16669842)    2.5000            (X_U1.N16669858)    5.0000                

(X_U1.N16670120)    2.0008            (X_U1.N16670154)    2.0000                

(X_U1.N16670162)    2.4991            (X_U1.N16670228)    5.0000                

(X_U1.N16670408)    0.0000            (X_U1.N16670672)    1.0000                

(X_U1.N16670780)    -.0013            (X_U1.N16670790)    0.0000                

(X_U1.N16670816)    4.9977            (X_U1.N16670888)    8.5000                

(X_U1.N16670896)    8.0000            (X_U1.N16671044)   12.0000                

(X_U1.N16671166)    0.0000            (X_U1.N16671236)    0.0000                

(X_U1.N16671468)    5.0000            (X_U1.N16671552) 6.575E-09                

(X_U1.N16671580)    2.0000            (X_U1.N16671640)    0.0000                

(X_U1.N16671702)    0.0000            (X_U1.N16671830)    4.7603                

(X_U1.N16671850)    0.0000            (X_U1.N16672106)    1.0000                

(X_U1.N16672276)    1.8000            (X_U1.N16672306)    1.8000                

(X_U1.N16672528)     .0679            (X_U1.N16672594)    0.0000                

(X_U1.N16672776)  -18.0000            (X_U1.N16672784)  -30.0000                

(X_U1.N16672968)  -30.0000            (X_U1.N16673112)    2.5000                

(X_U1.N16673358)    0.0000            (X_U1.N16673432)    1.8000                

(X_U1.N16673492)    1.8000            (X_U1.N16673790)     .9321                

(X_U1.N16698404)    5.0000            (X_U1.N16970878)    -.0013                

(X_U1.N17051744)    5.0000            (X_U1.N17051757)    5.0000                

(X_U1.N17051771)  -25.0000            (X_U1.N17088411)-501.5E-06                

(X_U1.N17110019)    5.0000            (X_U1.N17110021)    5.0000                

(X_U1.N17110038)    5.0000            (X_U1.N17127259)-1.511E-06                

(X_U1.N17153666)    5.0000            (X_U1.N17167704)  -30.0000                

(X_U1.N17167706)    5.0000            (X_U1.N17196585)    0.0000                

(X_U1.N17198437)    5.0000            (X_U1.N17201974)    5.0000                

(X_U1.N17396123)    2.4991            (X_U1.N17407797)    4.6045                

(X_U1.N167201110) 1.387E-24           (X_U1.N167208610)    5.0000               

(X_U1.N167216030)    5.0000           (X_U1.X_U42.YINT)    0.0000               

(X_U1.X_U43.YINT)    5.0000           (X_U1.X_U44.YINT)    5.0000               

(X_U1.X_U54.YINT)    5.0000           (X_U1.X_U61.YINT)    5.0000               

(X_U1.X_U62.YINT)    5.0000           (X_U1.DEAD_THRESH)     .0023              

(X_U1.UVLO1_DELAYED)    5.0000        (X_U1.UVLO2_DELAYED) 10.53E-18            

(X_U1.UVLO2B_DELAYED)    5.0000       

Resuming Simulation with the following settings
RELTOL = 0.0086

Convergence problem in transient analysis at Time =  3.220E-03
         Time step =  9.993E-15, minimum allowable step size =  10.50E-15

  These supply currents failed to converge:

    I(X_U1.E_E15)             =    14.35nA  \    78.41nA
    I(X_U9.EREF)              =   338.58pA  \   -57.64pA



  Last node voltages tried were:

 NODE   VOLTAGE     NODE   VOLTAGE     NODE   VOLTAGE     NODE   VOLTAGE


(   5V)    5.0000  (   HO)  -37.6800  (   LO)  -19.5370  (   VO)  -17.3940      

(   VS)  -37.0580  (  -5V)   -5.0000  (  15V)   15.0000  (  VCC)   30.0000      

(  VEE)  -30.0000  ( -15V)  -15.0000  (N32061)    -.8597 (N32249)    -.9183     

(N36112)     .8429 (N36230)    -.8875 (N36267)   -2.9478 (N37031)     .1102     

(N40177)  -26.4480 (N40195)  -25.2510 (N40287)  -18.0000 (N40377)    0.0000     

(N40401)    0.0000 (N40455)    0.0000 (N40487)    0.0000 (N40543)    4.9977     

(N41468)  -37.0910 (N41474)  -38.2760 (N41692)  -21.3640 (N41698)  -21.5420     

(N47111)    -.9288 (PWM_IN)     .1104 (X_M1.4)  -42.3070 (X_M1.5)   36.5910     

(X_M1.6)  -45.6740 (X_M2.4)  -39.3350 (X_M2.5)  -31.4780 (X_M2.6)  -33.0150     

(X_U7.7)   -1.8370 (X_U7.8) -973.2500 (X_U7.9)  -14.2380 (X_U9.3)    -.9184     

(X_U9.4)   14.3940 (X_U9.5)   14.4260 (X_U9.6)   -1.6443 (X_U9.7)   -1.6739     

(X_U9.8)   -2.2276 (X_U9.9)   -2.9563 (VTRIANG)   -1.4983                       

(X_M1.11)   36.7360                   (X_M1.12)   36.7360                       

(X_M1.22)  -40.2380                   (X_M1.33)  -49.5220                       

(X_M2.11)  -31.2420                   (X_M2.12)  -31.2420                       

(X_M2.22)  -26.2120                   (X_M2.33)  -37.7990                       

(X_U11.3)   -1.1548                   (X_U11.4)   13.9690                       

(X_U11.5)   14.8500                   (X_U11.6)     .0689                       

(X_U11.7)   -1.0681                   (X_U11.8)   -1.0681                       

(X_U11.9)     .8307                   (X_U7.10)     .7624                       

(X_U7.11)     .7624                   (X_U7.21)   -2.4978                       

(X_U7.22)   -1.0483                   (X_U9.10)   13.1700                       

(X_U9.11)  -13.1700                   (X_U9.14)    -.9029                       

(X_U9.15)-63.99E-06                   (X_U9.31)   -2.9447                       

(X_U9.32)-2.945E+06                   (X_U9.33)   -2.9678                       

(X_U9.34)-2.968E+06                   (X_U9.35)   -2.9811                       

(X_U9.36)   -2.9701                   (X_U9.40)   -2.9616                       

(X_U9.41)   -3.0016                   (X_U9.42)   -2.9216                       

(X_U9.45)   -2.9478                   (X_U9.60)     .6514                       

(X_U9.61)    0.0000                   (X_U9.62)    0.0000                       

(X_U9.98)    0.0000                   (X_U1.DIS)    0.0000                      

(X_U11.10)   13.1700                  (X_U11.11)  -13.1700                      

(X_U11.14)    -.0084                  (X_U11.15)    -.0296                      

(X_U11.31)     .9883                  (X_U11.32) 988.3E+03                      

(X_U11.33)     .6734                  (X_U11.34) 673.4E+03                      

(X_U11.35)     .0881                  (X_U11.36)     .6250                      

(X_U11.40)     .8651                  (X_U11.41)     .8251                      

(X_U11.42)     .9051                  (X_U11.45)     .8429                      

(X_U11.60)    -.6636                  (X_U11.61)    0.0000                      

(X_U11.62)    0.0000                  (X_U11.98)    0.0000                      

(X_U1.DRVA)    0.0000                 (X_U1.DRVB)    5.0000                     

(X_U1.NO_DT)    0.0000                (X_U1.PWMIN)    0.0000                    

(X_U1.UVLO1)    5.0000                (X_U1.UVLO2)    5.0000                    

(X_U1.INA_OK) 2.095E-24               (X_U1.INB_OK)    5.0000                   

(X_U1.PWMINB)    1.0000               (X_U1.UVLO2B)    5.0000                   

(X_U1.INA_INT)     .1104              (X_U1.INA_OKD) 2.095E-24                  

(X_U1.INA_PRE)    0.0000              (X_U1.INB_OKD)    5.0000                  

(X_U1.INB_PRE)    5.0000              (X_U1.VCCI_INT)    5.0000                 

(X_U1.DRVA_PASS)    0.0000            (X_U1.DRVB_PASS)    5.0000                

(X_U1.FAULT_INP)    5.0000            (X_U1.N16668890)    8.5000                

(X_U1.N16668898)    8.0000            (X_U1.N16669068)    0.0000                

(X_U1.N16669308)  -37.6800            (X_U1.N16669580) 2.095E-24                

(X_U1.N16669674)    0.0000            (X_U1.N16669834)    2.7000                

(X_U1.N16669842)    2.5000            (X_U1.N16669858)    5.0000                

(X_U1.N16670120)    2.0004            (X_U1.N16670154)    2.0000                

(X_U1.N16670162)    5.0000            (X_U1.N16670228)    5.0000                

(X_U1.N16670408)    0.0000            (X_U1.N16670672)    1.0000                

(X_U1.N16670780)   10.6100            (X_U1.N16670790)    5.0000                

(X_U1.N16670816)    4.9977            (X_U1.N16670888)    8.5000                

(X_U1.N16670896)    8.0000            (X_U1.N16671044)   12.0000                

(X_U1.N16671166)    0.0000            (X_U1.N16671236)    0.0000                

(X_U1.N16671468)    5.0000            (X_U1.N16671552)    2.0008                

(X_U1.N16671580)    2.0000            (X_U1.N16671640)    5.0000                

(X_U1.N16671702)    4.9999            (X_U1.N16671830)-1.153E-06                

(X_U1.N16671850)    0.0000            (X_U1.N16672106)    1.0000                

(X_U1.N16672276)    1.8000            (X_U1.N16672306)    1.8000                

(X_U1.N16672528)-126.6E-09            (X_U1.N16672594)    5.0000                

(X_U1.N16672776)  -18.3770            (X_U1.N16672784)   -7.5373                

(X_U1.N16672968)  -19.5370            (X_U1.N16673112)    5.0000                

(X_U1.N16673358)    0.0000            (X_U1.N16673432)    1.8000                

(X_U1.N16673492)    1.8000            (X_U1.N16673790)    1.0000                

(X_U1.N16698404)    5.0000            (X_U1.N16970878)  -26.4480                

(X_U1.N17051744)    -.2256            (X_U1.N17051757)    0.0000                

(X_U1.N17051771)  -30.2260            (X_U1.N17088411)  -37.5230                

(X_U1.N17110019)    5.0000            (X_U1.N17110021)    5.0000                

(X_U1.N17110038)  -32.0580            (X_U1.N17127259)  -37.0580                

(X_U1.N17153666)    5.0000            (X_U1.N17167704)  -17.9680                

(X_U1.N17167706) 83.70E-06            (X_U1.N17196585)    5.0000                

(X_U1.N17198437)    5.0000            (X_U1.N17201974)    5.0000                

(X_U1.N17396123)    5.0000            (X_U1.N17407797) 124.7E-12                

(X_U1.N167201110)    5.0000           (X_U1.N167208610)    5.0000               

(X_U1.N167216030)    5.0000           (X_U1.X_U42.YINT)    5.0000               

(X_U1.X_U43.YINT)    5.0000           (X_U1.X_U44.YINT)    5.0000               

(X_U1.X_U54.YINT)    5.0000           (X_U1.X_U61.YINT)    5.0000               

(X_U1.X_U62.YINT)    0.0000           (X_U1.DEAD_THRESH)     .0023              

(X_U1.UVLO1_DELAYED)    5.0000        (X_U1.UVLO2_DELAYED)    5.0000            

(X_U1.UVLO2B_DELAYED)    5.0000       

Resuming Simulation with the following settings
ITL4 = 1000
ABSTOL = 1.58e-008

Convergence problem in transient analysis at Time =  3.220E-03
         Time step =  9.993E-15, minimum allowable step size =  10.50E-15

  These supply currents failed to converge:

    I(X_U1.E_E15)             =    34.63nA  \  -103.48nA

  These devices failed to converge:
    X_M1.M2   



  Last node voltages tried were:

 NODE   VOLTAGE     NODE   VOLTAGE     NODE   VOLTAGE     NODE   VOLTAGE


(   5V)    5.0000  (   HO)  -37.6810  (   LO)  -19.5370  (   VO)  -17.3940      

(   VS)  -37.0580  (  -5V)   -5.0000  (  15V)   15.0000  (  VCC)   30.0000      

(  VEE)  -30.0000  ( -15V)  -15.0000  (N32061)    -.8598 (N32249)    -.9183     

(N36112)     .8429 (N36230)    -.8875 (N36267)   -2.9478 (N37031)     .1102     

(N40177)  -26.4480 (N40195)  -25.2510 (N40287)  -18.0000 (N40377)    0.0000     

(N40401)    0.0000 (N40455)    0.0000 (N40487)    0.0000 (N40543)    4.9977     

(N41468)  -37.0910 (N41474)  -38.2760 (N41692)  -21.3650 (N41698)  -21.5420     

(N47111)    -.9288 (PWM_IN)     .1104 (X_M1.4)  -42.3080 (X_M1.5)   36.5880     

(X_M1.6)  -45.6750 (X_M2.4)  -39.3320 (X_M2.5)  -31.4780 (X_M2.6)  -33.0120     

(X_U7.7)   -1.8370 (X_U7.8) -973.2500 (X_U7.9)  -14.2380 (X_U9.3)    -.9184     

(X_U9.4)   14.3940 (X_U9.5)   14.4260 (X_U9.6)   -1.6443 (X_U9.7)   -1.6739     

(X_U9.8)   -2.2276 (X_U9.9)   -2.9563 (VTRIANG)   -1.4983                       

(X_M1.11)   36.7330                   (X_M1.12)   36.7330                       

(X_M1.22)  -40.2390                   (X_M1.33)  -49.5230                       

(X_M2.11)  -31.2420                   (X_M2.12)  -31.2420                       

(X_M2.22)  -26.2090                   (X_M2.33)  -37.7960                       

(X_U11.3)   -1.1549                   (X_U11.4)   13.9690                       

(X_U11.5)   14.8510                   (X_U11.6)     .0689                       

(X_U11.7)   -1.0681                   (X_U11.8)   -1.0681                       

(X_U11.9)     .8307                   (X_U7.10)     .7624                       

(X_U7.11)     .7624                   (X_U7.21)   -2.4978                       

(X_U7.22)   -1.0483                   (X_U9.10)   13.1700                       

(X_U9.11)  -13.1700                   (X_U9.14)    -.9029                       

(X_U9.15)-64.00E-06                   (X_U9.31)   -2.9447                       

(X_U9.32)-2.945E+06                   (X_U9.33)   -2.9678                       

(X_U9.34)-2.968E+06                   (X_U9.35)   -2.9812                       

(X_U9.36)   -2.9701                   (X_U9.40)   -2.9616                       

(X_U9.41)   -3.0016                   (X_U9.42)   -2.9216                       

(X_U9.45)   -2.9478                   (X_U9.60)     .6514                       

(X_U9.61)    0.0000                   (X_U9.62)    0.0000                       

(X_U9.98)    0.0000                   (X_U1.DIS)    0.0000                      

(X_U11.10)   13.1700                  (X_U11.11)  -13.1700                      

(X_U11.14)    -.0084                  (X_U11.15)    -.0296                      

(X_U11.31)     .9883                  (X_U11.32) 988.3E+03                      

(X_U11.33)     .6734                  (X_U11.34) 673.4E+03                      

(X_U11.35)     .0881                  (X_U11.36)     .6250                      

(X_U11.40)     .8651                  (X_U11.41)     .8251                      

(X_U11.42)     .9051                  (X_U11.45)     .8428                      

(X_U11.60)    -.6636                  (X_U11.61)    0.0000                      

(X_U11.62)    0.0000                  (X_U11.98)    0.0000                      

(X_U1.DRVA)    0.0000                 (X_U1.DRVB)    5.0000                     

(X_U1.NO_DT)    0.0000                (X_U1.PWMIN)    0.0000                    

(X_U1.UVLO1)    5.0000                (X_U1.UVLO2)    5.0000                    

(X_U1.INA_OK) 2.095E-24               (X_U1.INB_OK)    5.0000                   

(X_U1.PWMINB)    1.0000               (X_U1.UVLO2B)    5.0000                   

(X_U1.INA_INT)     .1104              (X_U1.INA_OKD) 2.095E-24                  

(X_U1.INA_PRE)    0.0000              (X_U1.INB_OKD)    5.0000                  

(X_U1.INB_PRE)    5.0000              (X_U1.VCCI_INT)    5.0000                 

(X_U1.DRVA_PASS)    0.0000            (X_U1.DRVB_PASS)    5.0000                

(X_U1.FAULT_INP)    5.0000            (X_U1.N16668890)    8.5000                

(X_U1.N16668898)    8.0000            (X_U1.N16669068)    0.0000                

(X_U1.N16669308)  -37.6810            (X_U1.N16669580) 2.095E-24                

(X_U1.N16669674)    0.0000            (X_U1.N16669834)    2.7000                

(X_U1.N16669842)    2.5000            (X_U1.N16669858)    5.0000                

(X_U1.N16670120)    2.0004            (X_U1.N16670154)    2.0000                

(X_U1.N16670162)    5.0000            (X_U1.N16670228)    5.0000                

(X_U1.N16670408)    0.0000            (X_U1.N16670672)    1.0000                

(X_U1.N16670780)   10.6100            (X_U1.N16670790)    5.0000                

(X_U1.N16670816)    4.9977            (X_U1.N16670888)    8.5000                

(X_U1.N16670896)    8.0000            (X_U1.N16671044)   12.0000                

(X_U1.N16671166)    0.0000            (X_U1.N16671236)    0.0000                

(X_U1.N16671468)    5.0000            (X_U1.N16671552)    2.0008                

(X_U1.N16671580)    2.0000            (X_U1.N16671640)    5.0000                

(X_U1.N16671702)    4.9999            (X_U1.N16671830)-1.153E-06                

(X_U1.N16671850)    0.0000            (X_U1.N16672106)    1.0000                

(X_U1.N16672276)    1.8000            (X_U1.N16672306)    1.8000                

(X_U1.N16672528)-126.6E-09            (X_U1.N16672594)    5.0000                

(X_U1.N16672776)  -18.3780            (X_U1.N16672784)   -7.5374                

(X_U1.N16672968)  -19.5370            (X_U1.N16673112)    5.0000                

(X_U1.N16673358)    0.0000            (X_U1.N16673432)    1.8000                

(X_U1.N16673492)    1.8000            (X_U1.N16673790)    1.0000                

(X_U1.N16698404)    5.0000            (X_U1.N16970878)  -26.4480                

(X_U1.N17051744)    -.2256            (X_U1.N17051757)    0.0000                

(X_U1.N17051771)  -30.2260            (X_U1.N17088411)  -37.5230                

(X_U1.N17110019)    5.0000            (X_U1.N17110021)    5.0000                

(X_U1.N17110038)  -32.0580            (X_U1.N17127259)  -37.0580                

(X_U1.N17153666)    5.0000            (X_U1.N17167704)  -17.9680                

(X_U1.N17167706) 83.69E-06            (X_U1.N17196585)    5.0000                

(X_U1.N17198437)    5.0000            (X_U1.N17201974)    5.0000                

(X_U1.N17396123)    5.0000            (X_U1.N17407797) 124.7E-12                

(X_U1.N167201110)    5.0000           (X_U1.N167208610)    5.0000               

(X_U1.N167216030)    5.0000           (X_U1.X_U42.YINT)    5.0000               

(X_U1.X_U43.YINT)    5.0000           (X_U1.X_U44.YINT)    5.0000               

(X_U1.X_U54.YINT)    5.0000           (X_U1.X_U61.YINT)    5.0000               

(X_U1.X_U62.YINT)    0.0000           (X_U1.DEAD_THRESH)     .0023              

(X_U1.UVLO1_DELAYED)    5.0000        (X_U1.UVLO2_DELAYED)    5.0000            

(X_U1.UVLO2B_DELAYED)    5.0000       

Resuming Simulation with the following settings
ABSTOL = 1e-006

Convergence problem in transient analysis at Time =  3.220E-03
         Time step =  9.993E-15, minimum allowable step size =  10.50E-15

  These devices failed to converge:
    X_M1.M2   



  Last node voltages tried were:

 NODE   VOLTAGE     NODE   VOLTAGE     NODE   VOLTAGE     NODE   VOLTAGE


(   5V)    5.0000  (   HO)  -37.6810  (   LO)  -19.5370  (   VO)  -17.3940      

(   VS)  -37.0580  (  -5V)   -5.0000  (  15V)   15.0000  (  VCC)   30.0000      

(  VEE)  -30.0000  ( -15V)  -15.0000  (N32061)    -.8598 (N32249)    -.9183     

(N36112)     .8429 (N36230)    -.8875 (N36267)   -2.9478 (N37031)     .1102     

(N40177)  -26.4480 (N40195)  -25.2510 (N40287)  -18.0000 (N40377)    0.0000     

(N40401)    0.0000 (N40455)    0.0000 (N40487)    0.0000 (N40543)    4.9977     

(N41468)  -37.0910 (N41474)  -38.2760 (N41692)  -21.3650 (N41698)  -21.5420     

(N47111)    -.9288 (PWM_IN)     .1104 (X_M1.4)  -42.3080 (X_M1.5)   36.5880     

(X_M1.6)  -45.6750 (X_M2.4)  -39.3320 (X_M2.5)  -31.4780 (X_M2.6)  -33.0120     

(X_U7.7)   -1.8370 (X_U7.8) -973.2500 (X_U7.9)  -14.2380 (X_U9.3)    -.9184     

(X_U9.4)   14.3940 (X_U9.5)   14.4260 (X_U9.6)   -1.6443 (X_U9.7)   -1.6739     

(X_U9.8)   -2.2276 (X_U9.9)   -2.9563 (VTRIANG)   -1.4983                       

(X_M1.11)   36.7330                   (X_M1.12)   36.7330                       

(X_M1.22)  -40.2390                   (X_M1.33)  -49.5230                       

(X_M2.11)  -31.2420                   (X_M2.12)  -31.2420                       

(X_M2.22)  -26.2090                   (X_M2.33)  -37.7960                       

(X_U11.3)   -1.1549                   (X_U11.4)   13.9690                       

(X_U11.5)   14.8510                   (X_U11.6)     .0689                       

(X_U11.7)   -1.0681                   (X_U11.8)   -1.0681                       

(X_U11.9)     .8307                   (X_U7.10)     .7624                       

(X_U7.11)     .7624                   (X_U7.21)   -2.4978                       

(X_U7.22)   -1.0483                   (X_U9.10)   13.1700                       

(X_U9.11)  -13.1700                   (X_U9.14)    -.9029                       

(X_U9.15)-64.00E-06                   (X_U9.31)   -2.9447                       

(X_U9.32)-2.945E+06                   (X_U9.33)   -2.9678                       

(X_U9.34)-2.968E+06                   (X_U9.35)   -2.9812                       

(X_U9.36)   -2.9701                   (X_U9.40)   -2.9616                       

(X_U9.41)   -3.0016                   (X_U9.42)   -2.9216                       

(X_U9.45)   -2.9478                   (X_U9.60)     .6514                       

(X_U9.61)    0.0000                   (X_U9.62)    0.0000                       

(X_U9.98)    0.0000                   (X_U1.DIS)    0.0000                      

(X_U11.10)   13.1700                  (X_U11.11)  -13.1700                      

(X_U11.14)    -.0084                  (X_U11.15)    -.0296                      

(X_U11.31)     .9883                  (X_U11.32) 988.3E+03                      

(X_U11.33)     .6734                  (X_U11.34) 673.4E+03                      

(X_U11.35)     .0881                  (X_U11.36)     .6250                      

(X_U11.40)     .8651                  (X_U11.41)     .8251                      

(X_U11.42)     .9051                  (X_U11.45)     .8428                      

(X_U11.60)    -.6636                  (X_U11.61)    0.0000                      

(X_U11.62)    0.0000                  (X_U11.98)    0.0000                      

(X_U1.DRVA)    0.0000                 (X_U1.DRVB)    5.0000                     

(X_U1.NO_DT)    0.0000                (X_U1.PWMIN)    0.0000                    

(X_U1.UVLO1)    5.0000                (X_U1.UVLO2)    5.0000                    

(X_U1.INA_OK) 2.095E-24               (X_U1.INB_OK)    5.0000                   

(X_U1.PWMINB)    1.0000               (X_U1.UVLO2B)    5.0000                   

(X_U1.INA_INT)     .1104              (X_U1.INA_OKD) 2.095E-24                  

(X_U1.INA_PRE)    0.0000              (X_U1.INB_OKD)    5.0000                  

(X_U1.INB_PRE)    5.0000              (X_U1.VCCI_INT)    5.0000                 

(X_U1.DRVA_PASS)    0.0000            (X_U1.DRVB_PASS)    5.0000                

(X_U1.FAULT_INP)    5.0000            (X_U1.N16668890)    8.5000                

(X_U1.N16668898)    8.0000            (X_U1.N16669068)    0.0000                

(X_U1.N16669308)  -37.6810            (X_U1.N16669580) 2.095E-24                

(X_U1.N16669674)    0.0000            (X_U1.N16669834)    2.7000                

(X_U1.N16669842)    2.5000            (X_U1.N16669858)    5.0000                

(X_U1.N16670120)    2.0004            (X_U1.N16670154)    2.0000                

(X_U1.N16670162)    5.0000            (X_U1.N16670228)    5.0000                

(X_U1.N16670408)    0.0000            (X_U1.N16670672)    1.0000                

(X_U1.N16670780)   10.6100            (X_U1.N16670790)    5.0000                

(X_U1.N16670816)    4.9977            (X_U1.N16670888)    8.5000                

(X_U1.N16670896)    8.0000            (X_U1.N16671044)   12.0000                

(X_U1.N16671166)    0.0000            (X_U1.N16671236)    0.0000                

(X_U1.N16671468)    5.0000            (X_U1.N16671552)    2.0008                

(X_U1.N16671580)    2.0000            (X_U1.N16671640)    5.0000                

(X_U1.N16671702)    4.9999            (X_U1.N16671830)-1.153E-06                

(X_U1.N16671850)    0.0000            (X_U1.N16672106)    1.0000                

(X_U1.N16672276)    1.8000            (X_U1.N16672306)    1.8000                

(X_U1.N16672528)-126.6E-09            (X_U1.N16672594)    5.0000                

(X_U1.N16672776)  -18.3780            (X_U1.N16672784)   -7.5374                

(X_U1.N16672968)  -19.5370            (X_U1.N16673112)    5.0000                

(X_U1.N16673358)    0.0000            (X_U1.N16673432)    1.8000                

(X_U1.N16673492)    1.8000            (X_U1.N16673790)    1.0000                

(X_U1.N16698404)    5.0000            (X_U1.N16970878)  -26.4480                

(X_U1.N17051744)    -.2256            (X_U1.N17051757)    0.0000                

(X_U1.N17051771)  -30.2260            (X_U1.N17088411)  -37.5230                

(X_U1.N17110019)    5.0000            (X_U1.N17110021)    5.0000                

(X_U1.N17110038)  -32.0580            (X_U1.N17127259)  -37.0580                

(X_U1.N17153666)    5.0000            (X_U1.N17167704)  -17.9680                

(X_U1.N17167706) 83.69E-06            (X_U1.N17196585)    5.0000                

(X_U1.N17198437)    5.0000            (X_U1.N17201974)    5.0000                

(X_U1.N17396123)    5.0000            (X_U1.N17407797) 124.7E-12                

(X_U1.N167201110)    5.0000           (X_U1.N167208610)    5.0000               

(X_U1.N167216030)    5.0000           (X_U1.X_U42.YINT)    5.0000               

(X_U1.X_U43.YINT)    5.0000           (X_U1.X_U44.YINT)    5.0000               

(X_U1.X_U54.YINT)    5.0000           (X_U1.X_U61.YINT)    5.0000               

(X_U1.X_U62.YINT)    0.0000           (X_U1.DEAD_THRESH)     .0023              

(X_U1.UVLO1_DELAYED)    5.0000        (X_U1.UVLO2_DELAYED)    5.0000            

(X_U1.UVLO2B_DELAYED)    5.0000       

Resuming Simulation with the following settings
RELTOL = 0.05

Convergence problem in transient analysis at Time =  3.220E-03
         Time step =  9.993E-15, minimum allowable step size =  10.50E-15

  These devices failed to converge:
    X_M1.M2   



  Last node voltages tried were:

 NODE   VOLTAGE     NODE   VOLTAGE     NODE   VOLTAGE     NODE   VOLTAGE


(   5V)    5.0000  (   HO)  -37.9720  (   LO)  -19.6260  (   VO)  -17.3940      

(   VS)  -37.3030  (  -5V)   -5.0000  (  15V)   15.0000  (  VCC)   30.0000      

(  VEE)  -30.0000  ( -15V)  -15.0000  (N32061)    -.9364 (N32249)    -.9183     

(N36112)     .8228 (N36230)    -.8877 (N36267)   -2.9487 (N37031)     .1102     

(N40177)  -26.6930 (N40195)  -25.4750 (N40287)  -18.0000 (N40377)    0.0000     

(N40401)    0.0000 (N40455)    0.0000 (N40487)    0.0000 (N40543)    4.9977     

(N41468)  -37.3850 (N41474)  -38.6480 (N41692)  -21.5860 (N41698)  -21.7640     

(N47111)    -.9288 (PWM_IN)     .1104 (X_M1.4)  -41.3740 (X_M1.5)   35.3080     

(X_M1.6)  -44.6170 (X_M2.4)  -38.2100 (X_M2.5)  -33.0450 (X_M2.6)  -31.7380     

(X_U7.7)   -1.8378 (X_U7.8) -973.2400 (X_U7.9)  -14.2380 (X_U9.3)    -.9185     

(X_U9.4)   14.3940 (X_U9.5)   14.4260 (X_U9.6)   -1.6445 (X_U9.7)   -1.6739     

(X_U9.8)   -2.2277 (X_U9.9)   -2.9570 (VTRIANG)   -1.4982                       

(X_M1.11)   35.4480                   (X_M1.12)   35.4480                       

(X_M1.22)  -39.1530                   (X_M1.33)  -48.4720                       

(X_M2.11)  -32.8120                   (X_M2.12)  -32.8120                       

(X_M2.22)  -24.8490                   (X_M2.33)  -36.5410                       

(X_U11.3)   -1.2269                   (X_U11.4)   13.9570                       

(X_U11.5)   14.8630                   (X_U11.6)     .0488                       

(X_U11.7)   -1.0882                   (X_U11.8)   -1.0882                       

(X_U11.9)     .8100                   (X_U7.10)     .7624                       

(X_U7.11)     .7624                   (X_U7.21)   -2.4987                       

(X_U7.22)   -1.0482                   (X_U9.10)   13.1700                       

(X_U9.11)  -13.1700                   (X_U9.14)    -.9030                       

(X_U9.15)-68.62E-06                   (X_U9.31)   -2.9454                       

(X_U9.32)-2.945E+06                   (X_U9.33)   -2.9685                       

(X_U9.34)-2.969E+06                   (X_U9.35)   -2.9818                       

(X_U9.36)   -2.9708                   (X_U9.40)   -2.9623                       

(X_U9.41)   -3.0023                   (X_U9.42)   -2.9223                       

(X_U9.45)   -2.9486                   (X_U9.60)     .6511                       

(X_U9.61)    0.0000                   (X_U9.62)    0.0000                       

(X_U9.98)    0.0000                   (X_U1.DIS)    0.0000                      

(X_U11.10)   13.1700                  (X_U11.11)  -13.1700                      

(X_U11.14)    -.0568                  (X_U11.15)    -.0291                      

(X_U11.31)     .9780                  (X_U11.32) 978.0E+03                      

(X_U11.33)     .6423                  (X_U11.34) 642.3E+03                      

(X_U11.35)     .0482                  (X_U11.36)     .5908                      

(X_U11.40)     .8443                  (X_U11.41)     .8043                      

(X_U11.42)     .8843                  (X_U11.45)     .8227                      

(X_U11.60)    -.6628                  (X_U11.61)    0.0000                      

(X_U11.62)    0.0000                  (X_U11.98)    0.0000                      

(X_U1.DRVA)    0.0000                 (X_U1.DRVB)    5.0000                     

(X_U1.NO_DT)    0.0000                (X_U1.PWMIN)    0.0000                    

(X_U1.UVLO1)    5.0000                (X_U1.UVLO2)    5.0000                    

(X_U1.INA_OK) 2.073E-24               (X_U1.INB_OK)    5.0000                   

(X_U1.PWMINB)    1.0000               (X_U1.UVLO2B)    5.0000                   

(X_U1.INA_INT)     .1104              (X_U1.INA_OKD) 2.073E-24                  

(X_U1.INA_PRE)    0.0000              (X_U1.INB_OKD)    5.0000                  

(X_U1.INB_PRE)    5.0000              (X_U1.VCCI_INT)    5.0000                 

(X_U1.DRVA_PASS)    0.0000            (X_U1.DRVB_PASS)    5.0000                

(X_U1.FAULT_INP)    5.0000            (X_U1.N16668890)    8.5000                

(X_U1.N16668898)    8.0000            (X_U1.N16669068)    0.0000                

(X_U1.N16669308)  -37.9720            (X_U1.N16669580) 2.073E-24                

(X_U1.N16669674)    0.0000            (X_U1.N16669834)    2.7000                

(X_U1.N16669842)    2.5000            (X_U1.N16669858)    5.0000                

(X_U1.N16670120)    2.0004            (X_U1.N16670154)    2.0000                

(X_U1.N16670162)    5.0000            (X_U1.N16670228)    5.0000                

(X_U1.N16670408)    0.0000            (X_U1.N16670672)    1.0000                

(X_U1.N16670780)   10.6100            (X_U1.N16670790)    5.0000                

(X_U1.N16670816)    4.9977            (X_U1.N16670888)    8.5000                

(X_U1.N16670896)    8.0000            (X_U1.N16671044)   12.0000                

(X_U1.N16671166)    0.0000            (X_U1.N16671236)    0.0000                

(X_U1.N16671468)    5.0000            (X_U1.N16671552)    2.0008                

(X_U1.N16671580)    2.0000            (X_U1.N16671640)    5.0000                

(X_U1.N16671702)    4.9999            (X_U1.N16671830)-1.134E-06                

(X_U1.N16671850)    0.0000            (X_U1.N16672106)    1.0000                

(X_U1.N16672276)    1.8000            (X_U1.N16672306)    1.8000                

(X_U1.N16672528)-125.1E-09            (X_U1.N16672594)    5.0000                

(X_U1.N16672776)  -18.3980            (X_U1.N16672784)   -7.6256                

(X_U1.N16672968)  -19.6260            (X_U1.N16673112)    5.0000                

(X_U1.N16673358)    0.0000            (X_U1.N16673432)    1.8000                

(X_U1.N16673492)    1.8000            (X_U1.N16673790)    1.0000                

(X_U1.N16698404)    5.0000            (X_U1.N16970878)  -26.6930                

(X_U1.N17051744)    -.2227            (X_U1.N17051757)    0.0000                

(X_U1.N17051771)  -30.2230            (X_U1.N17088411)  -37.8020                

(X_U1.N17110019)    5.0000            (X_U1.N17110021)    5.0000                

(X_U1.N17110038)  -32.3030            (X_U1.N17127259)  -37.3030                

(X_U1.N17153666)    5.0000            (X_U1.N17167704)  -17.9690                

(X_U1.N17167706) 76.95E-06            (X_U1.N17196585)    5.0000                

(X_U1.N17198437)    5.0000            (X_U1.N17201974)    5.0000                

(X_U1.N17396123)    5.0000            (X_U1.N17407797) 121.1E-12                

(X_U1.N167201110)    5.0000           (X_U1.N167208610)    5.0000               

(X_U1.N167216030)    5.0000           (X_U1.X_U42.YINT)    5.0000               

(X_U1.X_U43.YINT)    5.0000           (X_U1.X_U44.YINT)    5.0000               

(X_U1.X_U54.YINT)    5.0000           (X_U1.X_U61.YINT)    5.0000               

(X_U1.X_U62.YINT)    0.0000           (X_U1.DEAD_THRESH)     .0023              

(X_U1.UVLO1_DELAYED)    5.0000        (X_U1.UVLO2_DELAYED)    5.0000            

(X_U1.UVLO2B_DELAYED)    5.0000       

Resuming Simulation with the following settings
ITL4 = 1000

Convergence problem in transient analysis at Time =  3.220E-03
         Time step =  9.993E-15, minimum allowable step size =  10.50E-15

  These devices failed to converge:
    X_M1.M2   



  Last node voltages tried were:

 NODE   VOLTAGE     NODE   VOLTAGE     NODE   VOLTAGE     NODE   VOLTAGE


(   5V)    5.0000  (   HO)  -37.9720  (   LO)  -19.6260  (   VO)  -17.3940      

(   VS)  -37.3030  (  -5V)   -5.0000  (  15V)   15.0000  (  VCC)   30.0000      

(  VEE)  -30.0000  ( -15V)  -15.0000  (N32061)    -.9365 (N32249)    -.9183     

(N36112)     .8228 (N36230)    -.8877 (N36267)   -2.9487 (N37031)     .1102     

(N40177)  -26.6930 (N40195)  -25.4750 (N40287)  -18.0000 (N40377)    0.0000     

(N40401)    0.0000 (N40455)    0.0000 (N40487)    0.0000 (N40543)    4.9977     

(N41468)  -37.3860 (N41474)  -38.6480 (N41692)  -21.5860 (N41698)  -21.7640     

(N47111)    -.9288 (PWM_IN)     .1104 (X_M1.4)  -41.3730 (X_M1.5)   35.3060     

(X_M1.6)  -44.6160 (X_M2.4)  -38.2080 (X_M2.5)  -33.0460 (X_M2.6)  -31.7360     

(X_U7.7)   -1.8378 (X_U7.8) -973.2400 (X_U7.9)  -14.2380 (X_U9.3)    -.9185     

(X_U9.4)   14.3940 (X_U9.5)   14.4260 (X_U9.6)   -1.6445 (X_U9.7)   -1.6739     

(X_U9.8)   -2.2277 (X_U9.9)   -2.9570 (VTRIANG)   -1.4982                       

(X_M1.11)   35.4470                   (X_M1.12)   35.4470                       

(X_M1.22)  -39.1520                   (X_M1.33)  -48.4710                       

(X_M2.11)  -32.8130                   (X_M2.12)  -32.8130                       

(X_M2.22)  -24.8470                   (X_M2.33)  -36.5390                       

(X_U11.3)   -1.2270                   (X_U11.4)   13.9570                       

(X_U11.5)   14.8630                   (X_U11.6)     .0487                       

(X_U11.7)   -1.0883                   (X_U11.8)   -1.0883                       

(X_U11.9)     .8100                   (X_U7.10)     .7624                       

(X_U7.11)     .7624                   (X_U7.21)   -2.4987                       

(X_U7.22)   -1.0482                   (X_U9.10)   13.1700                       

(X_U9.11)  -13.1700                   (X_U9.14)    -.9030                       

(X_U9.15)-68.63E-06                   (X_U9.31)   -2.9454                       

(X_U9.32)-2.945E+06                   (X_U9.33)   -2.9685                       

(X_U9.34)-2.969E+06                   (X_U9.35)   -2.9818                       

(X_U9.36)   -2.9708                   (X_U9.40)   -2.9623                       

(X_U9.41)   -3.0023                   (X_U9.42)   -2.9223                       

(X_U9.45)   -2.9486                   (X_U9.60)     .6511                       

(X_U9.61)    0.0000                   (X_U9.62)    0.0000                       

(X_U9.98)    0.0000                   (X_U1.DIS)    0.0000                      

(X_U11.10)   13.1700                  (X_U11.11)  -13.1700                      

(X_U11.14)    -.0569                  (X_U11.15)    -.0291                      

(X_U11.31)     .9780                  (X_U11.32) 978.0E+03                      

(X_U11.33)     .6422                  (X_U11.34) 642.2E+03                      

(X_U11.35)     .0481                  (X_U11.36)     .5908                      

(X_U11.40)     .8443                  (X_U11.41)     .8043                      

(X_U11.42)     .8843                  (X_U11.45)     .8227                      

(X_U11.60)    -.6628                  (X_U11.61)    0.0000                      

(X_U11.62)    0.0000                  (X_U11.98)    0.0000                      

(X_U1.DRVA)    0.0000                 (X_U1.DRVB)    5.0000                     

(X_U1.NO_DT)    0.0000                (X_U1.PWMIN)    0.0000                    

(X_U1.UVLO1)    5.0000                (X_U1.UVLO2)    5.0000                    

(X_U1.INA_OK) 2.073E-24               (X_U1.INB_OK)    5.0000                   

(X_U1.PWMINB)    1.0000               (X_U1.UVLO2B)    5.0000                   

(X_U1.INA_INT)     .1104              (X_U1.INA_OKD) 2.073E-24                  

(X_U1.INA_PRE)    0.0000              (X_U1.INB_OKD)    5.0000                  

(X_U1.INB_PRE)    5.0000              (X_U1.VCCI_INT)    5.0000                 

(X_U1.DRVA_PASS)    0.0000            (X_U1.DRVB_PASS)    5.0000                

(X_U1.FAULT_INP)    5.0000            (X_U1.N16668890)    8.5000                

(X_U1.N16668898)    8.0000            (X_U1.N16669068)    0.0000                

(X_U1.N16669308)  -37.9720            (X_U1.N16669580) 2.073E-24                

(X_U1.N16669674)    0.0000            (X_U1.N16669834)    2.7000                

(X_U1.N16669842)    2.5000            (X_U1.N16669858)    5.0000                

(X_U1.N16670120)    2.0004            (X_U1.N16670154)    2.0000                

(X_U1.N16670162)    5.0000            (X_U1.N16670228)    5.0000                

(X_U1.N16670408)    0.0000            (X_U1.N16670672)    1.0000                

(X_U1.N16670780)   10.6100            (X_U1.N16670790)    5.0000                

(X_U1.N16670816)    4.9977            (X_U1.N16670888)    8.5000                

(X_U1.N16670896)    8.0000            (X_U1.N16671044)   12.0000                

(X_U1.N16671166)    0.0000            (X_U1.N16671236)    0.0000                

(X_U1.N16671468)    5.0000            (X_U1.N16671552)    2.0008                

(X_U1.N16671580)    2.0000            (X_U1.N16671640)    5.0000                

(X_U1.N16671702)    4.9999            (X_U1.N16671830)-1.134E-06                

(X_U1.N16671850)    0.0000            (X_U1.N16672106)    1.0000                

(X_U1.N16672276)    1.8000            (X_U1.N16672306)    1.8000                

(X_U1.N16672528)-125.1E-09            (X_U1.N16672594)    5.0000                

(X_U1.N16672776)  -18.3980            (X_U1.N16672784)   -7.6257                

(X_U1.N16672968)  -19.6260            (X_U1.N16673112)    5.0000                

(X_U1.N16673358)    0.0000            (X_U1.N16673432)    1.8000                

(X_U1.N16673492)    1.8000            (X_U1.N16673790)    1.0000                

(X_U1.N16698404)    5.0000            (X_U1.N16970878)  -26.6930                

(X_U1.N17051744)    -.2227            (X_U1.N17051757)    0.0000                

(X_U1.N17051771)  -30.2230            (X_U1.N17088411)  -37.8020                

(X_U1.N17110019)    5.0000            (X_U1.N17110021)    5.0000                

(X_U1.N17110038)  -32.3030            (X_U1.N17127259)  -37.3030                

(X_U1.N17153666)    5.0000            (X_U1.N17167704)  -17.9690                

(X_U1.N17167706) 76.95E-06            (X_U1.N17196585)    5.0000                

(X_U1.N17198437)    5.0000            (X_U1.N17201974)    5.0000                

(X_U1.N17396123)    5.0000            (X_U1.N17407797) 121.1E-12                

(X_U1.N167201110)    5.0000           (X_U1.N167208610)    5.0000               

(X_U1.N167216030)    5.0000           (X_U1.X_U42.YINT)    5.0000               

(X_U1.X_U43.YINT)    5.0000           (X_U1.X_U44.YINT)    5.0000               

(X_U1.X_U54.YINT)    5.0000           (X_U1.X_U61.YINT)    5.0000               

(X_U1.X_U62.YINT)    0.0000           (X_U1.DEAD_THRESH)     .0023              

(X_U1.UVLO1_DELAYED)    5.0000        (X_U1.UVLO2_DELAYED)    5.0000            

(X_U1.UVLO2B_DELAYED)    5.0000       

Resuming could not converge the circuit, restarting it now

  These supply currents failed to converge:

    I(X_U1.E_E15)             =   109.58nA  \    29.25nA
    I(X_U1.V_V8)              =    39.17nA  \   -2.038nA

  These devices failed to converge:
    X_M1.M2   
Restarting Simulation with the following settings
ITL4 = 125
ABSTOL = 1.26e-010


**** 05/27/20 20:07:46 ****** PSpice 17.2.0 (March 2016) ****** ID# 0 ********

 ** Profile: "SCHEMATIC1-tran"  [ C:\Users\Comumar\Desktop\Fiuba\Circuitos 2\NUEVO\DCE-GRUPO10\REALIMENTADOR\PSpice\realimentador-psp


 ****     INITIAL TRANSIENT SOLUTION       TEMPERATURE =   27.000 DEG C


******************************************************************************



 NODE   VOLTAGE     NODE   VOLTAGE     NODE   VOLTAGE     NODE   VOLTAGE


(   5V)    5.0000  (   HO)-663.3E-06  (   LO)  -30.0000  (   VO)-1.369E-06      

(   VS)-1.369E-06  (  -5V)   -5.0000  (  15V)   15.0000  (  VCC)   30.0000      

(  VEE)  -30.0000  ( -15V)  -15.0000  (N32061)    -.0031 (N32249)    -.0032     

[...]
    V(X_U9.14)                =    45.81mV  \    45.67mV
    V(X_U9.31)                =    81.20mV  \    80.36mV
    V(X_U9.32)                =    81.20KV  \    80.36KV
    V(X_U9.33)                =    64.15mV  \    63.36mV
    V(X_U9.34)                =    64.15KV  \    63.36KV
    V(X_U9.35)                =    54.45mV  \    53.75mV
    V(X_U9.36)                =    62.47mV  \    61.69mV
    V(X_U9.40)                =    68.74mV  \    67.93mV
    V(X_U9.45)                =    78.55mV  \    77.54mV
    V(X_U9.41)                =    28.74mV  \    27.93mV
    V(X_U9.42)                =   108.74mV  \   107.93mV
    V(X_U11.8)                =  -513.91mV  \  -557.53mV
    V(X_U11.4)                =     14.09V  \     14.07V
    V(X_U11.6)                =   510.54mV  \   486.27mV
    V(X_U11.5)                =     14.73V  \     14.75V
    V(X_U11.3)                =   313.35mV  \   245.01mV
    V(X_U11.7)                =  -401.36mV  \  -464.33mV
    V(X_U11.15)               =   -17.02mV  \   -17.35mV
    V(X_U11.9)                =     1.282V  \     1.258V
    V(X_U11.14)               =   882.46mV  \   838.07mV
    V(X_U11.31)               =     1.408V  \     1.395V
    V(X_U11.32)               =    1.408MV  \    1.395MV
    V(X_U11.33)               =     1.155V  \     1.121V
    V(X_U11.34)               =    1.155MV  \    1.121MV
    V(X_U11.35)               =   748.37mV  \   691.40mV
    V(X_U11.36)               =     1.117V  \     1.080V
    V(X_U11.40)               =     1.296V  \     1.272V
    V(X_U11.45)               =     1.282V  \     1.258V
    V(X_U11.41)               =     1.256V  \     1.232V
    V(X_U11.42)               =     1.336V  \     1.312V

  These supply currents failed to converge:

    I(X_U1.E_ABM2)            =    77.48uA  \    76.10uA
    I(X_U1.E_ABM23)           =   -22.96uA  \   -20.02uA
    I(X_U1.E_E27)             =   133.84uA  \   130.41uA
    I(X_U1.E_E28)             =   868.13uA  \   845.92uA
    I(X_U1.E_ABM22)           =   -77.48uA  \   -76.10uA
    I(X_U1.E_E9)              =   -53.38mA  \   -52.34mA
    I(X_U9.ECM)               =    51.82uA  \    56.13uA
    I(X_U9.EZ1)               =   -64.15mA  \   -63.36mA
    I(X_U9.EZ2)               =   -54.45mA  \   -53.75mA
    I(X_U11.ECM)              =    17.02mA  \    17.35mA
    I(X_U11.EZ1)              =    -1.155A  \    -1.121A
    I(X_U11.EZ2)              =  -748.37mA  \  -691.40mA
    I(X_U1.X_U62.E_ABMGATE)   =    48.30uA  \    42.12uA
    I(X_M1.L1)                =     1.182A  \     1.149A
    I(X_M1.L2)                =  -490.50mA  \  -473.15mA
    I(X_M1.L3)                =  -691.64mA  \  -675.83mA
    I(X_M2.L1)                =     1.141A  \     1.108A
    I(X_M2.L2)                =   728.47mA  \   758.01mA
    I(X_M2.L3)                =    -1.869A  \    -1.866A
    I(X_U9.LO)                =   -1.226mA  \   -1.202mA
    I(X_U11.LO)               =    1.708mA  \    1.683mA
    I(V_V3)                   =    -1.182A  \    -1.149A
    I(V_V4)                   =    -1.129A  \    -1.096A
    I(V_V8)                   =   -19.93mA  \   -19.91mA
    I(V_V9)                   =   -19.46mA  \   -19.44mA
    I(V_V1)                   =  -954.87mA  \  -951.15mA
    I(X_U9.V7)                =   612.76uA  \   600.99uA
    I(X_U11.V8)               =   853.97uA  \   841.68uA

  These devices failed to converge:
    D_D6      D_D3      D_D4      X_U1.X_U33.d1 X_U9.FSY  X_U11.FSY X_M1.M1   
    X_M1.M2   X_M2.M1   X_M2.M2   X_U7.q5   X_U11.Q2  



  Last node voltages tried were:

 NODE   VOLTAGE     NODE   VOLTAGE     NODE   VOLTAGE     NODE   VOLTAGE


(   5V)    5.0000  (   HO)     .7244  (   LO)  -19.9150  (   VO)    -.0657      

(   VS)     .6123  (  -5V)   -5.0000  (  15V)   15.0000  (  VCC)   30.0000      

(  VEE)  -30.0000  ( -15V)  -15.0000  (N32061)     .4830 (N32249)     .0349     

(N36112)    1.2819 (N36230)     .0567 (N36267)     .0785 (N37031)     .1185     

(N40177)     .7236 (N40195)  -18.1170 (N40287)  -18.0000 (N40377)    0.0000     

(N40401)    0.0000 (N40455)    0.0000 (N40487)    0.0000 (N40543)    4.9977     

(N41468)    1.2146 (N41474)    1.3966 (N41692)  -23.0400 (N41698)  -23.0260     

(N47111)     .0430 (PWM_IN)     .1190 (X_M1.4)    4.2653 (X_M1.5)   30.8130     

(X_M1.6)    1.4288 (X_M2.4)  -23.6500 (X_M2.5)    1.3790 (X_M2.6)  -26.1320     

(X_U7.7)    1.1894 (X_U7.8)  -56.9250 (X_U7.9)  -14.2380 (X_U9.3)     .0349     

(X_U9.4)   14.3990 (X_U9.5)   14.4210 (X_U9.6)    -.6999 (X_U9.7)    -.7207     

(X_U9.8)   -1.2788 (X_U9.9)     .0727 (VTRIANG)     .9903                       

(X_M1.11)   30.8130                   (X_M1.12)   30.8130                       

(X_M1.22)     .4479                   (X_M1.33)    -.1817                       

(X_M2.11)    1.4300                   (X_M2.12)    1.4300                       

(X_M2.22)  -24.6750                   (X_M2.33)  -30.1030                       

(X_U11.3)     .3134                   (X_U11.4)   14.0920                       

(X_U11.5)   14.7280                   (X_U11.6)     .5105                       

(X_U11.7)    -.4014                   (X_U11.8)    -.5139                       

(X_U11.9)    1.2815                   (X_U7.10)     .7623                       

(X_U7.11)     .7623                   (X_U7.21)     .5285                       

(X_U7.22)    1.4403                   (X_U9.10)   13.1700                       

(X_U9.11)  -13.1700                   (X_U9.14)     .0458                       

(X_U9.15)-51.82E-06                   (X_U9.31)     .0812                       

(X_U9.32) 81.20E+03                   (X_U9.33)     .0642                       

(X_U9.34) 64.15E+03                   (X_U9.35)     .0544                       

(X_U9.36)     .0625                   (X_U9.40)     .0687                       

(X_U9.41)     .0287                   (X_U9.42)     .1087                       

(X_U9.45)     .0785                   (X_U9.60)     .6424                       

(X_U9.61)    0.0000                   (X_U9.62)    0.0000                       

(X_U9.98)    0.0000                   (X_U1.DIS)    0.0000                      

(X_U11.10)   13.1700                  (X_U11.11)  -13.1700                      

(X_U11.14)     .8825                  (X_U11.15)    -.0170                      

(X_U11.31)    1.4080                  (X_U11.32) 1.408E+06                      

(X_U11.33)    1.1551                  (X_U11.34) 1.155E+06                      

(X_U11.35)     .7484                  (X_U11.36)    1.1172                      

(X_U11.40)    1.2958                  (X_U11.41)    1.2558                      

(X_U11.42)    1.3358                  (X_U11.45)    1.2822                      

(X_U11.60)    -.6510                  (X_U11.61)    0.0000                      

(X_U11.62)    0.0000                  (X_U11.98)    0.0000                      

(X_U1.DRVA)    0.0000                 (X_U1.DRVB)    5.0000                     

(X_U1.NO_DT)    0.0000                (X_U1.PWMIN)    0.0000                    

(X_U1.UVLO1)    5.0000                (X_U1.UVLO2)    0.0000                    

(X_U1.INA_OK) 1.250E-18               (X_U1.INB_OK)    5.0000                   

(X_U1.PWMINB)    1.0000               (X_U1.UVLO2B)    5.0000                   

(X_U1.INA_INT)     .1190              (X_U1.INA_OKD) 1.250E-18                  

(X_U1.INA_PRE)    0.0000              (X_U1.INB_OKD)    5.0000                  

(X_U1.INB_PRE)    5.0000              (X_U1.VCCI_INT)    5.0000                 

(X_U1.DRVA_PASS)    0.0000            (X_U1.DRVB_PASS)    5.0000                

(X_U1.FAULT_INP)    5.0000            (X_U1.N16668890)    8.5000                

(X_U1.N16668898)    8.5000            (X_U1.N16669068)    0.0000                

(X_U1.N16669308)     .7244            (X_U1.N16669580) 1.250E-18                

(X_U1.N16669674)    0.0000            (X_U1.N16669834)    2.7000                

(X_U1.N16669842)    2.5000            (X_U1.N16669858)    5.0000                

(X_U1.N16670120)    2.0005            (X_U1.N16670154)    2.0000                

(X_U1.N16670162)    5.0005            (X_U1.N16670228)    5.0000                

(X_U1.N16670408)    0.0000            (X_U1.N16670672)    1.0000                

(X_U1.N16670780)     .1113            (X_U1.N16670790)    0.0000                

(X_U1.N16670816)    4.9977            (X_U1.N16670888)    8.5000                

(X_U1.N16670896)    8.0000            (X_U1.N16671044)   12.0000                

(X_U1.N16671166)    0.0000            (X_U1.N16671236)    0.0000                

(X_U1.N16671468)    5.0000            (X_U1.N16671552)    1.5261                

(X_U1.N16671580)    2.0000            (X_U1.N16671640)    5.0000                

(X_U1.N16671702)    5.0000            (X_U1.N16671830)     .0030                

(X_U1.N16671850)    0.0000            (X_U1.N16672106)    1.0000                

(X_U1.N16672276)    1.8000            (X_U1.N16672306)    1.8000                

(X_U1.N16672528) 387.4E-06            (X_U1.N16672594)    5.0000                

(X_U1.N16672776)  -18.4660            (X_U1.N16672784)   -7.9145                

(X_U1.N16672968)  -19.9150            (X_U1.N16673112)    5.0000                

(X_U1.N16673358)    0.0000            (X_U1.N16673432)    1.8000                

(X_U1.N16673492)    1.8000            (X_U1.N16673790)     .9996                

(X_U1.N16698404)    5.0000            (X_U1.N16970878)     .7236                

(X_U1.N17051744)    -.1762            (X_U1.N17051757)    0.0000                

(X_U1.N17051771)  -30.1760            (X_U1.N17088411)     .6971                

(X_U1.N17110019)    5.0000            (X_U1.N17110021)    5.0000                

(X_U1.N17110038)    5.6123            (X_U1.N17127259)     .6123                

(X_U1.N17153666)    5.0000            (X_U1.N17167704)  -18.2690                

(X_U1.N17167706) 48.30E-06            (X_U1.N17196585)    0.0000                

(X_U1.N17198437)    5.0000            (X_U1.N17201974)    5.0000                

(X_U1.N17396123)    5.0000            (X_U1.N17407797) 9.016E-06                

(X_U1.N167201110) 1.379E-24           (X_U1.N167208610)    5.0000               

(X_U1.N167216030)    5.0000           (X_U1.X_U42.YINT)    0.0000               

(X_U1.X_U43.YINT)    5.0000           (X_U1.X_U44.YINT)    5.0000               

(X_U1.X_U54.YINT)    5.0000           (X_U1.X_U61.YINT)    5.0000               

(X_U1.X_U62.YINT)    0.0000           (X_U1.DEAD_THRESH)     .0023              

(X_U1.UVLO1_DELAYED)    5.0000        (X_U1.UVLO2_DELAYED) 10.46E-18            

(X_U1.UVLO2B_DELAYED)    5.0000       

Resuming Simulation with the following settings
RELTOL = 0.0086

Convergence problem in transient analysis at Time =  2.075E-06
         Time step =  3.957E-15, minimum allowable step size =  10.50E-15

  These voltages failed to converge:

    V(VS)                     =   -16.85mV  \   -16.54mV
    V(X_U1.N17127259)         =   -16.85mV  \   -16.54mV

  These devices failed to converge:
    X_M1.M2   



  Last node voltages tried were:

 NODE   VOLTAGE     NODE   VOLTAGE     NODE   VOLTAGE     NODE   VOLTAGE


(   5V)    5.0000  (   HO)     .0952  (   LO)  -19.9100  (   VO)    -.0657      

(   VS)    -.0169  (  -5V)   -5.0000  (  15V)   15.0000  (  VCC)   30.0000      

(  VEE)  -30.0000  ( -15V)  -15.0000  (N32061)     .4510 (N32249)     .0349     

(N36112)    1.2704 (N36230)     .0566 (N36267)     .0780 (N37031)     .1185     

(N40177)     .0944 (N40195)  -18.1190 (N40287)  -18.0000 (N40377)    0.0000     

(N40401)    0.0000 (N40455)    0.0000 (N40487)    0.0000 (N40543)    4.9977     

(N41468)     .5886 (N41474)     .7756 (N41692)  -23.0260 (N41698)  -23.0130     

(N47111)     .0430 (PWM_IN)     .1189 (X_M1.4)    3.5993 (X_M1.5)   30.9050     

(X_M1.6)     .7203 (X_M2.4)  -23.7620 (X_M2.5)     .8259 (X_M2.6)  -26.2200     

(X_U7.7)    1.1889 (X_U7.8)  -56.9250 (X_U7.9)  -14.2380 (X_U9.3)     .0349     

(X_U9.4)   14.3990 (X_U9.5)   14.4210 (X_U9.6)    -.7000 (X_U9.7)    -.7208     

(X_U9.8)   -1.2789 (X_U9.9)     .0723 (VTRIANG)     .9904                       

(X_M1.11)   30.9050                   (X_M1.12)   30.9050                       

(X_M1.22)    -.2437                   (X_M1.33)    -.9357                       

(X_M2.11)     .8770                   (X_M2.12)     .8770                       

(X_M2.22)  -24.7340                   (X_M2.33)  -30.1940                       

(X_U11.3)     .2812                   (X_U11.4)   14.0820                       

(X_U11.5)   14.7380                   (X_U11.6)     .4989                       

(X_U11.7)    -.4309                   (X_U11.8)    -.5345                       

(X_U11.9)    1.2699                   (X_U7.10)     .7623                       

(X_U7.11)     .7623                   (X_U7.21)     .5280                       

(X_U7.22)    1.4404                   (X_U9.10)   13.1700                       

(X_U9.11)  -13.1700                   (X_U9.14)     .0457                       

(X_U9.15)-53.95E-06                   (X_U9.31)     .0808                       

(X_U9.32) 80.78E+03                   (X_U9.33)     .0638                       

(X_U9.34) 63.76E+03                   (X_U9.35)     .0541                       

(X_U9.36)     .0621                   (X_U9.40)     .0683                       

(X_U9.41)     .0283                   (X_U9.42)     .1083                       

(X_U9.45)     .0780                   (X_U9.60)     .6422                       

(X_U9.61)    0.0000                   (X_U9.62)    0.0000                       

(X_U9.98)    0.0000                   (X_U1.DIS)    0.0000                      

(X_U11.10)   13.1700                  (X_U11.11)  -13.1700                      

(X_U11.14)     .8607                  (X_U11.15)    -.0170                      

(X_U11.31)    1.4016                  (X_U11.32) 1.402E+06                      

(X_U11.33)    1.1383                  (X_U11.34) 1.138E+06                      

(X_U11.35)     .7202                  (X_U11.36)    1.0989                      

(X_U11.40)    1.2840                  (X_U11.41)    1.2440                      

(X_U11.42)    1.3240                  (X_U11.45)    1.2704                      

(X_U11.60)    -.6508                  (X_U11.61)    0.0000                      

(X_U11.62)    0.0000                  (X_U11.98)    0.0000                      

(X_U1.DRVA)    0.0000                 (X_U1.DRVB)    5.0000                     

(X_U1.NO_DT)    0.0000                (X_U1.PWMIN)    0.0000                    

(X_U1.UVLO1)    5.0000                (X_U1.UVLO2)    0.0000                    

(X_U1.INA_OK) 1.250E-18               (X_U1.INB_OK)    5.0000                   

(X_U1.PWMINB)    1.0000               (X_U1.UVLO2B)    5.0000                   

(X_U1.INA_INT)     .1189              (X_U1.INA_OKD) 1.250E-18                  

(X_U1.INA_PRE)    0.0000              (X_U1.INB_OKD)    5.0000                  

(X_U1.INB_PRE)    5.0000              (X_U1.VCCI_INT)    5.0000                 

(X_U1.DRVA_PASS)    0.0000            (X_U1.DRVB_PASS)    5.0000                

(X_U1.FAULT_INP)    5.0000            (X_U1.N16668890)    8.5000                

(X_U1.N16668898)    8.5000            (X_U1.N16669068)    0.0000                

(X_U1.N16669308)     .0952            (X_U1.N16669580) 1.250E-18                

(X_U1.N16669674)    0.0000            (X_U1.N16669834)    2.7000                

(X_U1.N16669842)    2.5000            (X_U1.N16669858)    5.0000                

(X_U1.N16670120)    2.0005            (X_U1.N16670154)    2.0000                

(X_U1.N16670162)    5.0005            (X_U1.N16670228)    5.0000                

(X_U1.N16670408)    0.0000            (X_U1.N16670672)    1.0000                

(X_U1.N16670780)     .1113            (X_U1.N16670790)    0.0000                

(X_U1.N16670816)    4.9977            (X_U1.N16670888)    8.5000                

(X_U1.N16670896)    8.0000            (X_U1.N16671044)   12.0000                

(X_U1.N16671166)    0.0000            (X_U1.N16671236)    0.0000                

(X_U1.N16671468)    5.0000            (X_U1.N16671552)    1.5291                

(X_U1.N16671580)    2.0000            (X_U1.N16671640)    5.0000                

(X_U1.N16671702)    5.0000            (X_U1.N16671830)     .0030                

(X_U1.N16671850)    0.0000            (X_U1.N16672106)    1.0000                

(X_U1.N16672276)    1.8000            (X_U1.N16672306)    1.8000                

(X_U1.N16672528) 384.0E-06            (X_U1.N16672594)    5.0000                

(X_U1.N16672776)  -18.4650            (X_U1.N16672784)   -7.9104                

(X_U1.N16672968)  -19.9100            (X_U1.N16673112)    5.0000                

(X_U1.N16673358)    0.0000            (X_U1.N16673432)    1.8000                

(X_U1.N16673492)    1.8000            (X_U1.N16673790)     .9996                

(X_U1.N16698404)    5.0000            (X_U1.N16970878)     .0944                

(X_U1.N17051744)    -.1744            (X_U1.N17051757)    0.0000                

(X_U1.N17051771)  -30.1740            (X_U1.N17088411)     .0680                

(X_U1.N17110019)    5.0000            (X_U1.N17110021)    5.0000                

(X_U1.N17110038)    4.9831            (X_U1.N17127259)    -.0169                

(X_U1.N17153666)    5.0000            (X_U1.N17167704)  -18.2630                

(X_U1.N17167706) 45.18E-06            (X_U1.N17196585)    0.0000                

(X_U1.N17198437)    5.0000            (X_U1.N17201974)    5.0000                

(X_U1.N17396123)    5.0000            (X_U1.N17407797) 8.815E-06                

(X_U1.N167201110) 1.379E-24           (X_U1.N167208610)    5.0000               

(X_U1.N167216030)    5.0000           (X_U1.X_U42.YINT)    0.0000               

(X_U1.X_U43.YINT)    5.0000           (X_U1.X_U44.YINT)    5.0000               

(X_U1.X_U54.YINT)    5.0000           (X_U1.X_U61.YINT)    5.0000               

(X_U1.X_U62.YINT)    0.0000           (X_U1.DEAD_THRESH)     .0023              

(X_U1.UVLO1_DELAYED)    5.0000        (X_U1.UVLO2_DELAYED) 10.46E-18            

(X_U1.UVLO2B_DELAYED)    5.0000       

Resuming Simulation with the following settings
RELTOL = 0.05


**** 05/27/20 20:07:46 ****** PSpice 17.2.0 (March 2016) ****** ID# 0 ********

 ** Profile: "SCHEMATIC1-tran"  [ C:\Users\Comumar\Desktop\Fiuba\Circuitos 2\NUEVO\DCE-GRUPO10\REALIMENTADOR\PSpice\realimentador-psp


 ****     FOURIER ANALYSIS                 TEMPERATURE =   27.000 DEG C


******************************************************************************



FOURIER COMPONENTS OF TRANSIENT RESPONSE V(VO)



 DC COMPONENT =   8.2454E-02

 HARMONIC   FREQUENCY     FOURIER     NORMALIZED     PHASE     NORMALIZED
    NO         (HZ)      COMPONENT     COMPONENT     (DEG)     PHASE (DEG)

     1    1.0000E+03   1.4576E-02   1.0000E+00  -6.7914E+01   0.0000E+00
     2    2.0000E+03   4.1696E-01   2.8605E+01   1.6986E+02   3.0569E+02
     3    3.0000E+03   2.1883E+01   1.5013E+03   1.7546E+02   3.7921E+02
     4    4.0000E+03   5.0946E-03   3.4951E-01  -1.4181E+02   1.2984E+02
     5    5.0000E+03   1.9724E-03   1.3532E-01   1.3031E+02   4.6988E+02


     TOTAL HARMONIC DISTORTION =   1.5016E+05 PERCENT


          JOB CONCLUDED
 AutoConverge Simulator Options
 ITL1 = 150
 ITL2 = 20
 ITL4 = 100
 RELTOL = 0.05
 ABSTOL = 1e-006
 VNTOL = 4.46684e-005
 PIVTOL = 1e-013

**** 05/27/20 20:07:46 ****** PSpice 17.2.0 (March 2016) ****** ID# 0 ********

 ** Profile: "SCHEMATIC1-tran"  [ C:\Users\Comumar\Desktop\Fiuba\Circuitos 2\NUEVO\DCE-GRUPO10\REALIMENTADOR\PSpice\realimentador-psp


 ****     JOB STATISTICS SUMMARY


******************************************************************************



  Total job time (using Solver 1)   =     1039.31
