Circuit: * C:\Users\Ema\Desktop\DCE\DISTORSION\Distorsion_20k.asc

Questionable use of curly braces in "b§e_abmgate yint 0 v={if(v(a)>{{vthresh}},{{vss}},{{vdd}})}"
    Error: undefined symbol in: "if([v](a)>((vthresh)),((vss)),((vdd)))"
Questionable use of curly braces in "b§e_abmgate yint 0 v={if(v(a)>{{vthresh}}&v(b)>{{vthresh}},{{vdd}},{{vss}})}"
    Error: undefined symbol in: "if([v](a)>((vthresh))&v(b)>((vthresh)),((vdd)),((vss)))"
Questionable use of curly braces in "b§e_abmgate yint 0 v={if(v(a)>{{vthresh}}&v(b)>{{vthresh}},{{vdd}},{{vss}})}"
    Error: undefined symbol in: "if([v](a)>((vthresh))&v(b)>((vthresh)),((vdd)),((vss)))"
Questionable use of curly braces in "b§e_abmgate yint 0 v={if(v(a)>{{vthresh}},{{vss}},{{vdd}})}"
    Error: undefined symbol in: "if([v](a)>((vthresh)),((vss)),((vdd)))"
Questionable use of curly braces in "b§e_abmgate yint 0 v={if(v(a)>{{vthresh}}&v(b)>{{vthresh}},{{vdd}},{{vss}})}"
    Error: undefined symbol in: "if([v](a)>((vthresh))&v(b)>((vthresh)),((vdd)),((vss)))"
Questionable use of curly braces in "b§e_abmgate yint 0 v={if(v(a)>{{vthresh}},{{vss}},{{vdd}})}"
    Error: undefined symbol in: "if([v](a)>((vthresh)),((vss)),((vdd)))"
WARNING: Less than two connections to node NC_03.  This node is used by V:U4:_V11.
WARNING: Less than two connections to node NC_02.  This node is used by V:U4:_V12.
WARNING: Less than two connections to node NC_01.  This node is used by V:U4:_V13.
WARNING: Less than two connections to node NC_04.  This node is used by V:U4:_V14.
WARNING: Less than two connections to node -15V.  This node is used by V6.
Instance "m:u4:_m12:1": Length shorter than recommended for a level 1 MOSFET.
Instance "m:u4:_m14:1": Length shorter than recommended for a level 1 MOSFET.
Instance "m:u4:_m15:1": Length shorter than recommended for a level 1 MOSFET.
Instance "m:u4:_m13:1": Length shorter than recommended for a level 1 MOSFET.
Instance "m:m2:2": Length shorter than recommended for a level 3 MOSFET.
Instance "m:m2:1": Length shorter than recommended for a level 3 MOSFET.
Instance "m:m1:2": Length shorter than recommended for a level 3 MOSFET.
Instance "m:m1:1": Length shorter than recommended for a level 3 MOSFET.
Per .tran options, skipping operating point for transient analysis.
Ignoring empty pin current: Ix(u4:vcci_1)
Changing Tseed to 1.46484e-010
Changing Tseed to 1.46484e-012
Changing Tseed to 1.46484e-009
Changing Tseed to 1.46484e-013
Changing Tseed to 1.46484e-008
Changing Tseed to 1.46484e-014
Changing Tseed to 1.46484e-007
Changing Tseed to 1.46484e-015
Changing Tseed to 1.46484e-006
Changing Tseed to 1.46484e-016
Changing Tseed to 1.46484e-005
Changing Tseed to 1.46484e-017
Heightened Def Con from 0 Changing Tseed to 1e-009
Changing Tseed to 1e-011
Changing Tseed to 1e-008
Changing Tseed to 1e-012
Changing Tseed to 1e-007
Changing Tseed to 1e-013
Changing Tseed to 1e-006
Changing Tseed to 1e-014
Changing Tseed to 1e-005
Changing Tseed to 1e-015
Changing Tseed to 0.0001
Changing Tseed to 1e-016
+Changing Tseed to 1e-009
Changing Tseed to 1e-011
Changing Tseed to 1e-008
Changing Tseed to 1e-012
Changing Tseed to 1e-007
Changing Tseed to 1e-013
Changing Tseed to 1e-006
Changing Tseed to 1e-014
Changing Tseed to 1e-005
Changing Tseed to 1e-015
Changing Tseed to 0.0001
Changing Tseed to 1e-016
+Changing Tseed to 1e-009
Changing Tseed to 1e-011
Changing Tseed to 1e-008
Changing Tseed to 1e-012
Changing Tseed to 1e-007
Changing Tseed to 1e-013
Changing Tseed to 1e-006
Changing Tseed to 1e-014
Changing Tseed to 1e-005
Changing Tseed to 1e-015
Changing Tseed to 0.0001
Changing Tseed to 1e-016
+Changing Tseed to 1e-009
Changing Tseed to 1e-011
Changing Tseed to 1e-008
Changing Tseed to 1e-012
Changing Tseed to 1e-007
Changing Tseed to 1e-013
Changing Tseed to 1e-006
Changing Tseed to 1e-014
Changing Tseed to 1e-005
Changing Tseed to 1e-015
Changing Tseed to 0.0001
Changing Tseed to 1e-016
+Changing Tseed to 1e-009
Changing Tseed to 1e-011
Changing Tseed to 1e-008
Changing Tseed to 1e-012
Changing Tseed to 1e-007
Changing Tseed to 1e-013
Changing Tseed to 1e-006
Changing Tseed to 1e-014
Changing Tseed to 1e-005
Changing Tseed to 1e-015
Changing Tseed to 0.0001
Changing Tseed to 1e-016
+Changing Tseed to 1e-009
Changing Tseed to 1e-011
Changing Tseed to 1e-008
Changing Tseed to 1e-012
Changing Tseed to 1e-007
Changing Tseed to 1e-013
Changing Tseed to 1e-006
Changing Tseed to 1e-014
Changing Tseed to 1e-005
Changing Tseed to 1e-015
Changing Tseed to 0.0001
Changing Tseed to 1e-016
+Changing Tseed to 1e-009
Changing Tseed to 1e-011
Changing Tseed to 1e-008
Changing Tseed to 1e-012
Changing Tseed to 1e-007
Changing Tseed to 1e-013
Changing Tseed to 1e-006
Changing Tseed to 1e-014
Changing Tseed to 1e-005
Changing Tseed to 1e-015
Changing Tseed to 0.0001
Changing Tseed to 1e-016
+Changing Tseed to 1e-009
Changing Tseed to 1e-011
Changing Tseed to 1e-008
Changing Tseed to 1e-012
Changing Tseed to 1e-007
Changing Tseed to 1e-013
Changing Tseed to 1e-006
Changing Tseed to 1e-014
Changing Tseed to 1e-005
Changing Tseed to 1e-015
Changing Tseed to 0.0001
Changing Tseed to 1e-016
+Changing Tseed to 1e-009
Changing Tseed to 1e-011
Changing Tseed to 1e-008
Changing Tseed to 1e-012
Changing Tseed to 1e-007
Changing Tseed to 1e-013
Changing Tseed to 1e-006
Changing Tseed to 1e-014
Changing Tseed to 1e-005
Changing Tseed to 1e-015
Changing Tseed to 0.0001
Changing Tseed to 1e-016
+Changing Tseed to 1e-009
Changing Tseed to 1e-011
Changing Tseed to 1e-008
Changing Tseed to 1e-012
Changing Tseed to 1e-007
Changing Tseed to 1e-013
Changing Tseed to 1e-006
Changing Tseed to 1e-014
Changing Tseed to 1e-005
Changing Tseed to 1e-015
Changing Tseed to 0.0001
Changing Tseed to 1e-016
+Changing Tseed to 1e-009
Changing Tseed to 1e-011
Changing Tseed to 1e-008
Changing Tseed to 1e-012
Changing Tseed to 1e-007
Changing Tseed to 1e-013
Changing Tseed to 1e-006
Changing Tseed to 1e-014
Changing Tseed to 1e-005
Changing Tseed to 1e-015
Changing Tseed to 0.0001
Changing Tseed to 1e-016
+Changing Tseed to 1e-009
Changing Tseed to 1e-011
Changing Tseed to 1e-008
Changing Tseed to 1e-012
Changing Tseed to 1e-007
Changing Tseed to 1e-013
Changing Tseed to 1e-006
Changing Tseed to 1e-014
Changing Tseed to 1e-005
Changing Tseed to 1e-015
Changing Tseed to 0.0001
Changing Tseed to 1e-016
+Changing Tseed to 1e-009
Changing Tseed to 1e-011
Changing Tseed to 1e-008
Changing Tseed to 1e-012
Changing Tseed to 1e-007
Changing Tseed to 1e-013
Changing Tseed to 1e-006
Changing Tseed to 1e-014
Changing Tseed to 1e-005
Changing Tseed to 1e-015
Changing Tseed to 0.0001
Changing Tseed to 1e-016
+Changing Tseed to 1e-009
Changing Tseed to 1e-011
Changing Tseed to 1e-008
Changing Tseed to 1e-012
Changing Tseed to 1e-007
Changing Tseed to 1e-013
Changing Tseed to 1e-006
Changing Tseed to 1e-014
Changing Tseed to 1e-005
Changing Tseed to 1e-015
Changing Tseed to 0.0001
Changing Tseed to 1e-016
+Changing Tseed to 1e-009
Changing Tseed to 1e-011
Changing Tseed to 1e-008
Changing Tseed to 1e-012
Changing Tseed to 1e-007
Changing Tseed to 1e-013
Changing Tseed to 1e-006
Changing Tseed to 1e-014
Changing Tseed to 1e-005
Changing Tseed to 1e-015
Changing Tseed to 0.0001
Changing Tseed to 1e-016
+Changing Tseed to 1e-009
Changing Tseed to 1e-011
Changing Tseed to 1e-008
Changing Tseed to 1e-012
Changing Tseed to 1e-007
Changing Tseed to 1e-013
Changing Tseed to 1e-006
Changing Tseed to 1e-014
Changing Tseed to 1e-005
Changing Tseed to 1e-015
Changing Tseed to 0.0001
Changing Tseed to 1e-016
+Changing Tseed to 1e-009
Changing Tseed to 1e-011
Changing Tseed to 1e-008
Changing Tseed to 1e-012
Changing Tseed to 1e-007
Changing Tseed to 1e-013
Changing Tseed to 1e-006
Changing Tseed to 1e-014
Changing Tseed to 1e-005
Changing Tseed to 1e-015
Changing Tseed to 0.0001
Changing Tseed to 1e-016
+Changing Tseed to 1e-009
Changing Tseed to 1e-011
Changing Tseed to 1e-008
Changing Tseed to 1e-012
Changing Tseed to 1e-007
Changing Tseed to 1e-013
Changing Tseed to 1e-006
Changing Tseed to 1e-014
Changing Tseed to 1e-005
Changing Tseed to 1e-015
Changing Tseed to 0.0001
Changing Tseed to 1e-016
+Changing Tseed to 1e-009
Changing Tseed to 1e-011
Changing Tseed to 1e-008
Changing Tseed to 1e-012
Changing Tseed to 1e-007
Changing Tseed to 1e-013
Changing Tseed to 1e-006
Changing Tseed to 1e-014
Changing Tseed to 1e-005
Changing Tseed to 1e-015
Changing Tseed to 0.0001
Changing Tseed to 1e-016
+Changing Tseed to 1e-009
Changing Tseed to 1e-011
Changing Tseed to 1e-008
Changing Tseed to 1e-012
Changing Tseed to 1e-007
Changing Tseed to 1e-013
Changing Tseed to 1e-006
Changing Tseed to 1e-014
Changing Tseed to 1e-005
Changing Tseed to 1e-015
Changing Tseed to 0.0001
Changing Tseed to 1e-016
+Changing Tseed to 1e-009
Changing Tseed to 1e-011
Changing Tseed to 1e-008
Changing Tseed to 1e-012
Changing Tseed to 1e-007
Changing Tseed to 1e-013
Changing Tseed to 1e-006
Changing Tseed to 1e-014
Changing Tseed to 1e-005
Changing Tseed to 1e-015
Changing Tseed to 0.0001
Changing Tseed to 1e-016
+Changing Tseed to 1e-009
Changing Tseed to 1e-011
Changing Tseed to 1e-008
Changing Tseed to 1e-012
Changing Tseed to 1e-007
Changing Tseed to 1e-013
Changing Tseed to 1e-006
Changing Tseed to 1e-014
Changing Tseed to 1e-005
Changing Tseed to 1e-015
Changing Tseed to 0.0001
Changing Tseed to 1e-016
+Changing Tseed to 1e-009
Changing Tseed to 1e-011
Changing Tseed to 1e-008
Changing Tseed to 1e-012
Changing Tseed to 1e-007
Changing Tseed to 1e-013
Changing Tseed to 1e-006
Changing Tseed to 1e-014
Changing Tseed to 1e-005
Changing Tseed to 1e-015
Changing Tseed to 0.0001
Changing Tseed to 1e-016
+Changing Tseed to 1e-009
Changing Tseed to 1e-011
Changing Tseed to 1e-008
Changing Tseed to 1e-012
Changing Tseed to 1e-007
Changing Tseed to 1e-013
Changing Tseed to 1e-006
Changing Tseed to 1e-014
Changing Tseed to 1e-005
Changing Tseed to 1e-015
Changing Tseed to 0.0001
Changing Tseed to 1e-016
+Changing Tseed to 1e-009
Changing Tseed to 1e-011
Changing Tseed to 1e-008
Changing Tseed to 1e-012
Changing Tseed to 1e-007
Changing Tseed to 1e-013
Changing Tseed to 1e-006
Changing Tseed to 1e-014
Changing Tseed to 1e-005
Changing Tseed to 1e-015
Changing Tseed to 0.0001
Changing Tseed to 1e-016
+Changing Tseed to 1e-009
Changing Tseed to 1e-011
Changing Tseed to 1e-008
Changing Tseed to 1e-012
Changing Tseed to 1e-007
Changing Tseed to 1e-013
Changing Tseed to 1e-006
Changing Tseed to 1e-014
Changing Tseed to 1e-005
Changing Tseed to 1e-015
Changing Tseed to 0.0001
Changing Tseed to 1e-016
+Changing Tseed to 1e-009
Changing Tseed to 1e-011
Changing Tseed to 1e-008
Changing Tseed to 1e-012
Changing Tseed to 1e-007
Changing Tseed to 1e-013
Changing Tseed to 1e-006
Changing Tseed to 1e-014
Changing Tseed to 1e-005
Changing Tseed to 1e-015
Changing Tseed to 0.0001
Changing Tseed to 1e-016
+Changing Tseed to 1e-009
Changing Tseed to 1e-011
Changing Tseed to 1e-008
Changing Tseed to 1e-012
Changing Tseed to 1e-007
Changing Tseed to 1e-013
Changing Tseed to 1e-006
Changing Tseed to 1e-014
Changing Tseed to 1e-005
Changing Tseed to 1e-015
Changing Tseed to 0.0001
Changing Tseed to 1e-016
+Changing Tseed to 1e-009
Changing Tseed to 1e-011
Changing Tseed to 1e-008
Changing Tseed to 1e-012
Changing Tseed to 1e-007
Changing Tseed to 1e-013
Changing Tseed to 1e-006
Changing Tseed to 1e-014
Changing Tseed to 1e-005
Changing Tseed to 1e-015
Changing Tseed to 0.0001
Changing Tseed to 1e-016
+Changing Tseed to 1e-009
Changing Tseed to 1e-011
Changing Tseed to 1e-008
Changing Tseed to 1e-012
Changing Tseed to 1e-007
Changing Tseed to 1e-013
Changing Tseed to 1e-006
Changing Tseed to 1e-014
Changing Tseed to 1e-005
Changing Tseed to 1e-015
Changing Tseed to 0.0001
Changing Tseed to 1e-016
+Changing Tseed to 1e-009
Changing Tseed to 1e-011
Changing Tseed to 1e-008
Changing Tseed to 1e-012
Changing Tseed to 1e-007
Changing Tseed to 1e-013
Changing Tseed to 1e-006
Changing Tseed to 1e-014
Changing Tseed to 1e-005
Changing Tseed to 1e-015
Changing Tseed to 0.0001
Changing Tseed to 1e-016
+Changing Tseed to 1e-009
Changing Tseed to 1e-011
Changing Tseed to 1e-008
Changing Tseed to 1e-012
Changing Tseed to 1e-007
Changing Tseed to 1e-013
Changing Tseed to 1e-006
Changing Tseed to 1e-014
Changing Tseed to 1e-005
Changing Tseed to 1e-015
Changing Tseed to 0.0001
Changing Tseed to 1e-016
+Changing Tseed to 1e-009
Changing Tseed to 1e-011
Changing Tseed to 1e-008
Changing Tseed to 1e-012
Changing Tseed to 1e-007
Changing Tseed to 1e-013
Changing Tseed to 1e-006
Changing Tseed to 1e-014
Changing Tseed to 1e-005
Changing Tseed to 1e-015
Changing Tseed to 0.0001
Changing Tseed to 1e-016
+Changing Tseed to 1e-009
Changing Tseed to 1e-011
Changing Tseed to 1e-008
Changing Tseed to 1e-012
Changing Tseed to 1e-007
Changing Tseed to 1e-013
Changing Tseed to 1e-006
Changing Tseed to 1e-014
Changing Tseed to 1e-005
Changing Tseed to 1e-015
Changing Tseed to 0.0001
Changing Tseed to 1e-016
+Changing Tseed to 1e-009
Changing Tseed to 1e-011
Changing Tseed to 1e-008
Changing Tseed to 1e-012
Changing Tseed to 1e-007
Changing Tseed to 1e-013
Changing Tseed to 1e-006
Changing Tseed to 1e-014
Changing Tseed to 1e-005
Changing Tseed to 1e-015
Changing Tseed to 0.0001
Changing Tseed to 1e-016
+Changing Tseed to 1e-009
Changing Tseed to 1e-011
to 1.125e-011
Heightened Def Con from 1.125e-011 +++++++++++++++++++++++++++to 2.26125e-009
Heightened Def Con from 2.26125e-009 +++++++++++++++++++to 2.26394e-009
Heightened Def Con from 2.26394e-009 +++++++++++++++to 2.26398e-009
Heightened Def Con from 1.91525e-008 to 2.01681e-008
Heightened Def Con from 4.9982e-005 to 4.9983e-005
Heightened Def Con from 5.2112e-005 to 5.2119e-005
Heightened Def Con from 5.5523e-005 to 5.55231e-005
Heightened Def Con from 6.08338e-005 to 6.08339e-005
Heightened Def Con from 6.11496e-005 to 6.11586e-005
Heightened Def Con from 6.57104e-005 to 6.57106e-005
Heightened Def Con from 6.61448e-005 to 6.61618e-005
Heightened Def Con from 7.02574e-005 to 7.02575e-005
Heightened Def Con from 7.46286e-005 to 7.46288e-005
Heightened Def Con from 7.89851e-005 to 7.89852e-005
Heightened Def Con from 7.89948e-005 to 7.90068e-005
Heightened Def Con from 8.3054e-005 to 8.307e-005
Heightened Def Con from 8.34789e-005 to 8.3479e-005
Heightened Def Con from 8.34887e-005 to 8.34977e-005
Heightened Def Con from 8.81928e-005 to 8.82058e-005
Heightened Def Con from 8.82311e-005 to 8.82312e-005
Heightened Def Con from 8.824e-005 to 8.825e-005
Heightened Def Con from 9.28663e-005 to 9.28763e-005
Heightened Def Con from 9.34849e-005 to 9.3485e-005
Heightened Def Con from 9.34947e-005 to 9.35037e-005
Heightened Def Con from 9.7249e-005 to 9.7259e-005
Heightened Def Con from 9.90866e-005 to 9.90867e-005
Heightened Def Con from 9.90964e-005 to 9.91085e-005
Heightened Def Con from 0.000104763 to 0.000104763
Heightened Def Con from 0.000110133 to 0.000110133
Heightened Def Con from 0.000110431 to 0.000110435
Heightened Def Con from 0.000115066 to 0.000115066
Heightened Def Con from 0.000115391 to 0.000115409
Heightened Def Con from 0.000119648 to 0.000119648
Heightened Def Con from 0.000124035 to 0.000124035
Heightened Def Con from 0.000128383 to 0.000128383
Heightened Def Con from 0.000128393 to 0.000128405
Heightened Def Con from 0.000132849 to 0.000132849
Heightened Def Con from 0.000132859 to 0.000132868
Heightened Def Con from 0.000142232 to 0.000142232
Heightened Def Con from 0.000142738 to 0.000142743
Heightened Def Con from 0.000142744 to 0.000142744
Heightened Def Con from 0.000146646 to 0.000146646
Heightened Def Con from 0.000148298 to 0.000148304
Heightened Def Con from 0.000148305 to 0.000148305
Heightened Def Con from 0.000148315 to 0.000148326
Heightened Def Con from 0.000150925 to 0.000150925
Heightened Def Con from 0.000150927 to 0.000150927
Heightened Def Con from 0.000153996 to 0.000153996
Heightened Def Con from 0.000155226 to 0.00015523
Heightened Def Con from 0.000155231 to 0.000155231
Heightened Def Con from 0.000155243 to 0.000155253
Heightened Def Con from 0.000159419 to 0.000159421
Heightened Def Con from 0.000159422 to 0.000159422
Heightened Def Con from 0.000159739 to 0.000159739
Heightened Def Con from 0.00015975 to 0.000159757
Heightened Def Con from 0.000164409 to 0.000164411
Heightened Def Con from 0.000164413 to 0.000164413
Heightened Def Con from 0.000164632 to 0.000164632
Heightened Def Con from 0.000164643 to 0.00016465
Heightened Def Con from 0.000169035 to 0.000169035
Heightened Def Con from 0.000170032 to 0.000170033
Heightened Def Con from 0.000170044 to 0.00017005
Heightened Def Con from 0.000173439 to 0.000173439
Heightened Def Con from 0.000175826 to 0.000175826
Heightened Def Con from 0.000177784 to 0.000177784
Heightened Def Con from 0.00018155 to 0.00018155
Heightened Def Con from 0.000182217 to 0.000182222
Heightened Def Con from 0.000182224 to 0.000182224
Heightened Def Con from 0.000182235 to 0.000182242
Heightened Def Con from 0.000186828 to 0.00018683
Heightened Def Con from 0.000186831 to 0.000186831
Heightened Def Con from 0.000186884 to 0.000186884
Heightened Def Con from 0.000186895 to 0.000186903
Heightened Def Con from 0.000191604 to 0.000191604
Heightened Def Con from 0.000192004 to 0.000192009
Heightened Def Con from 0.00019201 to 0.00019201
Heightened Def Con from 0.000192021 to 0.000192028
Heightened Def Con from 0.000196054 to 0.000196054
Heightened Def Con from 0.000197519 to 0.000197525
Heightened Def Con from 0.000197526 to 0.000197526
Heightened Def Con from 0.000197536 to 0.000197547
Heightened Def Con from 0.000200334 to 0.000200335
Heightened Def Con from 0.000200336 to 0.000200336
Heightened Def Con from 0.000203224 to 0.000203224
Heightened Def Con from 0.000204629 to 0.000204632
Heightened Def Con from 0.000204633 to 0.000204633
Heightened Def Con from 0.000204644 to 0.000204654
Heightened Def Con from 0.000208699 to 0.000208701
Heightened Def Con from 0.000208703 to 0.000208704
Heightened Def Con from 0.000209104 to 0.000209105
Heightened Def Con from 0.000209116 to 0.000209122
Heightened Def Con from 0.000213754 to 0.000213754
Heightened Def Con from 0.00021393 to 0.00021393
Heightened Def Con from 0.000213942 to 0.000213948
Heightened Def Con from 0.000218414 to 0.000218417
Heightened Def Con from 0.000218418 to 0.000218418
Heightened Def Con from 0.000219266 to 0.000219266
Heightened Def Con from 0.000219278 to 0.000219284
Heightened Def Con from 0.000222843 to 0.000222843
Heightened Def Con from 0.00022502 to 0.00022502
Heightened Def Con from 0.000227185 to 0.000227185
Heightened Def Con from 0.000227187 to 0.000227207
Heightened Def Con from 0.000230785 to 0.000230786
Heightened Def Con from 0.000230788 to 0.000230788
Heightened Def Con from 0.000231599 to 0.000231602
Heightened Def Con from 0.000231603 to 0.000231603
Heightened Def Con from 0.000231614 to 0.000231623
Heightened Def Con from 0.000236135 to 0.000236135
Heightened Def Con from 0.000236229 to 0.000236234
Heightened Def Con from 0.000236235 to 0.000236236
Heightened Def Con from 0.000240975 to 0.000240977
Heightened Def Con from 0.000240978 to 0.000240978
Heightened Def Con from 0.000241279 to 0.000241284
Heightened Def Con from 0.000241285 to 0.000241285
Heightened Def Con from 0.000241296 to 0.000241303
Heightened Def Con from 0.000245457 to 0.000245457
Heightened Def Con from 0.000246743 to 0.000246749
Heightened Def Con from 0.00024675 to 0.00024675
Heightened Def Con from 0.00024676 to 0.000246768
Heightened Def Con from 0.000249755 to 0.000249755
Heightened Def Con from 0.000252447 to 0.000252447
Heightened Def Con from 0.000254033 to 0.000254035
Heightened Def Con from 0.000254036 to 0.000254036
Heightened Def Con from 0.000257977 to 0.000257977
Heightened Def Con from 0.00025847 to 0.00025847
Heightened Def Con from 0.000258482 to 0.000258488
Heightened Def Con from 0.000263087 to 0.000263087
Heightened Def Con from 0.000263235 to 0.000263235
Heightened Def Con from 0.000263247 to 0.000263253
Heightened Def Con from 0.000267792 to 0.000267795
Heightened Def Con from 0.000267796 to 0.000267796
Heightened Def Con from 0.0002685 to 0.0002685
Heightened Def Con from 0.000268511 to 0.000268517
Heightened Def Con from 0.000272241 to 0.000272243
Heightened Def Con from 0.000272244 to 0.000272244
Heightened Def Con from 0.000274213 to 0.000274217
Heightened Def Con from 0.000274218 to 0.000274218
Heightened Def Con from 0.000276563 to 0.000276587
Heightened Def Con from 0.000276588 to 0.000276588
Heightened Def Con from 0.000276589 to 0.000276589
Heightened Def Con from 0.000280014 to 0.000280015
Heightened Def Con from 0.000280987 to 0.000280987
Heightened Def Con from 0.000280998 to 0.000281006
Heightened Def Con from 0.000285434 to 0.000285434
Heightened Def Con from 0.000285583 to 0.000285588
Heightened Def Con from 0.000285589 to 0.00028559
Heightened Def Con from 0.0002856 to 0.000285607
Heightened Def Con from 0.000290339 to 0.000290339
Heightened Def Con from 0.000290561 to 0.000290566
Heightened Def Con from 0.000290568 to 0.000290568
Heightened Def Con from 0.000294853 to 0.000294853
Heightened Def Con from 0.000295973 to 0.000295978
Heightened Def Con from 0.00029598 to 0.00029598
Heightened Def Con from 0.00029599 to 0.000295999
Heightened Def Con from 0.000299168 to 0.000299169
Heightened Def Con from 0.000299171 to 0.000299171
Heightened Def Con from 0.000301667 to 0.000301668
Heightened Def Con from 0.000301669 to 0.000301689
Heightened Def Con from 0.000303445 to 0.000303445
Heightened Def Con from 0.000307241 to 0.000307241
Heightened Def Con from 0.000307852 to 0.000307852
Heightened Def Con from 0.000307863 to 0.000307869
Heightened Def Con from 0.000312411 to 0.000312413
Heightened Def Con from 0.000312414 to 0.000312415
Heightened Def Con from 0.000312553 to 0.000312554
Heightened Def Con from 0.000312565 to 0.000312571
Heightened Def Con from 0.000317166 to 0.000317169
Heightened Def Con from 0.00031717 to 0.00031717
Heightened Def Con from 0.000317751 to 0.000317752
Heightened Def Con from 0.000317763 to 0.000317769
Heightened Def Con from 0.00032164 to 0.000321642
Heightened Def Con from 0.000321644 to 0.000321644
Heightened Def Con from 0.000323413 to 0.000323413
Heightened Def Con from 0.000323425 to 0.000323435
Heightened Def Con from 0.000325992 to 0.000325993
Heightened Def Con from 0.000325994 to 0.000325994
Heightened Def Con from 0.000329236 to 0.000329236
Heightened Def Con from 0.000330368 to 0.000330374
Heightened Def Con from 0.000330375 to 0.000330375
Heightened Def Con from 0.000330386 to 0.000330397
Heightened Def Con from 0.000334719 to 0.000334719
Heightened Def Con from 0.000334938 to 0.000334938
Heightened Def Con from 0.00033494 to 0.000334944
Heightened Def Con from 0.000334944 to 0.000334945
Heightened Def Con from 0.000334955 to 0.000334962
Heightened Def Con from 0.000339688 to 0.000339688
Heightened Def Con from 0.000339848 to 0.000339853
Heightened Def Con from 0.000339855 to 0.000339855
Heightened Def Con from 0.000339865 to 0.000339872
Heightened Def Con from 0.000344248 to 0.000344248
Heightened Def Con from 0.000345208 to 0.000345213
Heightened Def Con from 0.000345214 to 0.000345215
Heightened Def Con from 0.000345225 to 0.000345232
Heightened Def Con from 0.000348577 to 0.000348578
Heightened Def Con from 0.000348579 to 0.00034858
Heightened Def Con from 0.000350884 to 0.000350884
Heightened Def Con from 0.000352855 to 0.000352855
Heightened Def Con from 0.000356493 to 0.000356495
Heightened Def Con from 0.000356496 to 0.000356497
Heightened Def Con from 0.000357229 to 0.000357229
Heightened Def Con from 0.000357241 to 0.000357247
Heightened Def Con from 0.000361727 to 0.000361729
Heightened Def Con from 0.000361731 to 0.000361731
Heightened Def Con from 0.000361884 to 0.000361884
Heightened Def Con from 0.000361895 to 0.000361901
Heightened Def Con from 0.000366538 to 0.000366538
Heightened Def Con from 0.000367006 to 0.000367006
Heightened Def Con from 0.000367017 to 0.000367023
Heightened Def Con from 0.000371039 to 0.000371041
Heightened Def Con from 0.000371043 to 0.000371043
Heightened Def Con from 0.000372616 to 0.000372619
Heightened Def Con from 0.00037262 to 0.00037262
Heightened Def Con from 0.000372632 to 0.000372642
Heightened Def Con from 0.000375396 to 0.000375398
Heightened Def Con from 0.000375399 to 0.0003754
Heightened Def Con from 0.000378449 to 0.000378449
Heightened Def Con from 0.000379761 to 0.000379767
Heightened Def Con from 0.000379768 to 0.000379768
Heightened Def Con from 0.000379779 to 0.00037979
Heightened Def Con from 0.000383995 to 0.000383997
Heightened Def Con from 0.000383998 to 0.000383998
Heightened Def Con from 0.000384297 to 0.000384302
Heightened Def Con from 0.000384304 to 0.000384304
Heightened Def Con from 0.000384314 to 0.000384321
Heightened Def Con from 0.000389036 to 0.000389036
Heightened Def Con from 0.000389141 to 0.000389146
Heightened Def Con from 0.000389147 to 0.000389147
Heightened Def Con from 0.000389158 to 0.000389166
Heightened Def Con from 0.000393646 to 0.000393646
Heightened Def Con from 0.000394456 to 0.000394457
Heightened Def Con from 0.000394467 to 0.000394474
Heightened Def Con from 0.000397994 to 0.000397994
Heightened Def Con from 0.000400101 to 0.000400101
Heightened Def Con from 0.000402267 to 0.000402267
Heightened Def Con from 0.000405746 to 0.000405746
Heightened Def Con from 0.00040662 to 0.00040662
Heightened Def Con from 0.000406631 to 0.000406637
Heightened Def Con from 0.000411039 to 0.000411039
Heightened Def Con from 0.000411223 to 0.000411223
Heightened Def Con from 0.000411234 to 0.00041124
Heightened Def Con from 0.0004159 to 0.0004159
Heightened Def Con from 0.000416271 to 0.000416271
Heightened Def Con from 0.000416282 to 0.000416288
Heightened Def Con from 0.000420437 to 0.000420437
Heightened Def Con from 0.000421828 to 0.000421828
Heightened Def Con from 0.000421839 to 0.000421849
Heightened Def Con from 0.000424805 to 0.000424805
Heightened Def Con from 0.000427652 to 0.000427652
Heightened Def Con from 0.000429163 to 0.000429163
Heightened Def Con from 0.000433263 to 0.000433263
Heightened Def Con from 0.000433661 to 0.000433664
Heightened Def Con from 0.000433666 to 0.000433666
Heightened Def Con from 0.000433676 to 0.000433683
Heightened Def Con from 0.000438378 to 0.000438378
Heightened Def Con from 0.000438443 to 0.000438443
Heightened Def Con from 0.000438453 to 0.000438461
Heightened Def Con from 0.000443033 to 0.000443033
Heightened Def Con from 0.000443699 to 0.000443704
Heightened Def Con from 0.000443706 to 0.000443706
Heightened Def Con from 0.000443716 to 0.000443723
Heightened Def Con from 0.00044741 to 0.00044741
Heightened Def Con from 0.000449311 to 0.000449317
Heightened Def Con from 0.000449318 to 0.000449319
Heightened Def Con from 0.000451676 to 0.000451676
Heightened Def Con from 0.000451676 to 0.000451697
Heightened Def Con from 0.000454988 to 0.000454989
Heightened Def Con from 0.000456009 to 0.000456009
Heightened Def Con from 0.00045602 to 0.00045603
Heightened Def Con from 0.00046034 to 0.00046034
Heightened Def Con from 0.00046057 to 0.00046057
Heightened Def Con from 0.000460582 to 0.000460588
Heightened Def Con from 0.000465257 to 0.000465258
Heightened Def Con from 0.000465551 to 0.000465551
Heightened Def Con from 0.000465563 to 0.000465569
Heightened Def Con from 0.000469829 to 0.000469829
Heightened Def Con from 0.00047104 to 0.00047104
Heightened Def Con from 0.000471051 to 0.000471057
Heightened Def Con from 0.000474211 to 0.000474211
Heightened Def Con from 0.000476857 to 0.000476857
Heightened Def Con from 0.000478561 to 0.000478561
Heightened Def Con from 0.000482522 to 0.000482524
Heightened Def Con from 0.000482525 to 0.000482525
Heightened Def Con from 0.00048303 to 0.000483033
Heightened Def Con from 0.000483034 to 0.000483034
Heightened Def Con from 0.000483045 to 0.000483052
Heightened Def Con from 0.000487719 to 0.000487719
Heightened Def Con from 0.00048775 to 0.000487751
Heightened Def Con from 0.00048776 to 0.00048777
Heightened Def Con from 0.000492407 to 0.000492409
Heightened Def Con from 0.000492956 to 0.000492961
Heightened Def Con from 0.000492963 to 0.000492963
Heightened Def Con from 0.000492974 to 0.000492981
Heightened Def Con from 0.000496815 to 0.000496815
Heightened Def Con from 0.000498532 to 0.000498535
Heightened Def Con from 0.000498536 to 0.000498536
Heightened Def Con from 0.000498547 to 0.000498556
Heightened Def Con from 0.000501092 to 0.000501093
Heightened Def Con from 0.000501094 to 0.000501094
Heightened Def Con from 0.000504221 to 0.000504223
Heightened Def Con from 0.000504224 to 0.000504224
Heightened Def Con from 0.000505407 to 0.000505408
Heightened Def Con from 0.000505419 to 0.000505429
Heightened Def Con from 0.000509634 to 0.000509635
Heightened Def Con from 0.000509928 to 0.000509928
Heightened Def Con from 0.000509939 to 0.000509945
Heightened Def Con from 0.000514607 to 0.000514607
Heightened Def Con from 0.000514835 to 0.000514836
Heightened Def Con from 0.000514847 to 0.000514853
Heightened Def Con from 0.000519213 to 0.000519215
Heightened Def Con from 0.000519217 to 0.000519217
Heightened Def Con from 0.000520258 to 0.000520258
Heightened Def Con from 0.00052027 to 0.000520276
Heightened Def Con from 0.000523615 to 0.000523615
Heightened Def Con from 0.000526052 to 0.000526053
Heightened Def Con from 0.000527961 to 0.000527961
Heightened Def Con from 0.00053177 to 0.000531771
Heightened Def Con from 0.000531772 to 0.000531772
Heightened Def Con from 0.000532402 to 0.000532407
Heightened Def Con from 0.000532408 to 0.000532408
Heightened Def Con from 0.000532419 to 0.000532426
Heightened Def Con from 0.00053703 to 0.00053703
Heightened Def Con from 0.000537083 to 0.000537083
Heightened Def Con from 0.000537093 to 0.000537101
Heightened Def Con from 0.000541786 to 0.000541788
Heightened Def Con from 0.000541789 to 0.000541789
Heightened Def Con from 0.00054222 to 0.000542225
Heightened Def Con from 0.000542227 to 0.000542227
Heightened Def Con from 0.000542237 to 0.000542244
Heightened Def Con from 0.000546221 to 0.000546223
Heightened Def Con from 0.000546224 to 0.000546224
Heightened Def Con from 0.000547756 to 0.000547756
Heightened Def Con from 0.000547767 to 0.000547778
Heightened Def Con from 0.000550508 to 0.000550508
Heightened Def Con from 0.000553451 to 0.000553452
Heightened Def Con from 0.000553453 to 0.000553453
Heightened Def Con from 0.0005548 to 0.000554804
Heightened Def Con from 0.000554805 to 0.000554805
Heightened Def Con from 0.000554817 to 0.000554819
Heightened Def Con from 0.000558917 to 0.000558917
Heightened Def Con from 0.00055929 to 0.00055929
Heightened Def Con from 0.000559302 to 0.000559308
Heightened Def Con from 0.00056395 to 0.00056395
Heightened Def Con from 0.000564132 to 0.000564132
Heightened Def Con from 0.000564144 to 0.00056415
Heightened Def Con from 0.000568598 to 0.0005686
Heightened Def Con from 0.000568602 to 0.000568602
Heightened Def Con from 0.000569486 to 0.000569486
Heightened Def Con from 0.000569497 to 0.000569503
Heightened Def Con from 0.000573019 to 0.000573019
Heightened Def Con from 0.000575249 to 0.00057525
Heightened Def Con from 0.000577362 to 0.000577362
Heightened Def Con from 0.000581005 to 0.000581005
Heightened Def Con from 0.000581783 to 0.000581786
Heightened Def Con from 0.000581787 to 0.000581787
Heightened Def Con from 0.000581798 to 0.000581806
Heightened Def Con from 0.000586332 to 0.000586335
Heightened Def Con from 0.000586335 to 0.000586336
Heightened Def Con from 0.000586429 to 0.000586429
Heightened Def Con from 0.00058644 to 0.000586447
Heightened Def Con from 0.000591161 to 0.000591161
Heightened Def Con from 0.000591492 to 0.000591493
Heightened Def Con from 0.000591495 to 0.000591498
Heightened Def Con from 0.000591499 to 0.000591499
Heightened Def Con from 0.000591509 to 0.000591516
Heightened Def Con from 0.000595627 to 0.000595627
Heightened Def Con from 0.000596979 to 0.000596979
Heightened Def Con from 0.00059699 to 0.000596998
Heightened Def Con from 0.000599921 to 0.000599922
Heightened Def Con from 0.000602676 to 0.000602676
Heightened Def Con from 0.000602677 to 0.000602678
Heightened Def Con from 0.000604206 to 0.000604207
Heightened Def Con from 0.000608188 to 0.00060819
Heightened Def Con from 0.000608192 to 0.000608192
Heightened Def Con from 0.000608658 to 0.000608658
Heightened Def Con from 0.000608669 to 0.000608675
Heightened Def Con from 0.000613259 to 0.000613262
Heightened Def Con from 0.000613282 to 0.000613285
Heightened Def Con from 0.000613286 to 0.000613286
Heightened Def Con from 0.000613434 to 0.000613434
Heightened Def Con from 0.00061798 to 0.00061798
Heightened Def Con from 0.000618722 to 0.000618722
Heightened Def Con from 0.000618734 to 0.00061874
Heightened Def Con from 0.000622418 to 0.00062242
Heightened Def Con from 0.000622422 to 0.000622422
Heightened Def Con from 0.000624444 to 0.000624448
Heightened Def Con from 0.000624449 to 0.00062445
Heightened Def Con from 0.000626764 to 0.000626765
Heightened Def Con from 0.000626765 to 0.000626765
Heightened Def Con from 0.000630236 to 0.000630237
Heightened Def Con from 0.000630239 to 0.000630239
Heightened Def Con from 0.000631163 to 0.000631169
Heightened Def Con from 0.00063117 to 0.00063117
Heightened Def Con from 0.000631181 to 0.000631188
Heightened Def Con from 0.000635635 to 0.000635635
Heightened Def Con from 0.000635774 to 0.000635779
Heightened Def Con from 0.000635781 to 0.000635781
Heightened Def Con from 0.000635792 to 0.000635799
Heightened Def Con from 0.000640521 to 0.000640523
Heightened Def Con from 0.000640524 to 0.000640524
Heightened Def Con from 0.000640773 to 0.000640778
Heightened Def Con from 0.000640779 to 0.000640779
Heightened Def Con from 0.00064079 to 0.000640797
Heightened Def Con from 0.000645028 to 0.000645028
Heightened Def Con from 0.000646206 to 0.000646206
Heightened Def Con from 0.000646217 to 0.000646226
Heightened Def Con from 0.000649339 to 0.00064934
Heightened Def Con from 0.000651898 to 0.000651898
Heightened Def Con from 0.000651899 to 0.00065192
Heightened Def Con from 0.000653613 to 0.000653613
Heightened Def Con from 0.000657455 to 0.000657457
Heightened Def Con from 0.000657459 to 0.000657459
Heightened Def Con from 0.00065803 to 0.00065803
Heightened Def Con from 0.000658041 to 0.000658047
Heightened Def Con from 0.000662611 to 0.000662614
Heightened Def Con from 0.000662615 to 0.000662615
Heightened Def Con from 0.000662746 to 0.000662746
Heightened Def Con from 0.000667351 to 0.000667353
Heightened Def Con from 0.000667355 to 0.000667355
Heightened Def Con from 0.000667963 to 0.000667963
Heightened Def Con from 0.000667974 to 0.00066798
Heightened Def Con from 0.000671817 to 0.000671819
Heightened Def Con from 0.000671821 to 0.000671821
Heightened Def Con from 0.000673641 to 0.000673645
Heightened Def Con from 0.000673646 to 0.000673646
Heightened Def Con from 0.000673658 to 0.000673668
Heightened Def Con from 0.00067617 to 0.00067617
Heightened Def Con from 0.000679459 to 0.00067946
Heightened Def Con from 0.000679461 to 0.000679461
Heightened Def Con from 0.00068055 to 0.000680556
Heightened Def Con from 0.000680556 to 0.000680557
Heightened Def Con from 0.000680567 to 0.000680573
Heightened Def Con from 0.000684924 to 0.000684926
Heightened Def Con from 0.000684927 to 0.000684927
Heightened Def Con from 0.000685129 to 0.000685134
Heightened Def Con from 0.000685135 to 0.000685135
Heightened Def Con from 0.000685146 to 0.000685153
Heightened Def Con from 0.000689876 to 0.000689878
Heightened Def Con from 0.00068988 to 0.00068988
Heightened Def Con from 0.00069006 to 0.000690065
Heightened Def Con from 0.000690066 to 0.000690066
Heightened Def Con from 0.000690077 to 0.000690084
Heightened Def Con from 0.000694425 to 0.000694426
Heightened Def Con from 0.000694427 to 0.000694427
Heightened Def Con from 0.00069544 to 0.00069544
Heightened Def Con from 0.000695451 to 0.000695458
Heightened Def Con from 0.000698745 to 0.000698746
Heightened Def Con from 0.000698748 to 0.000698748
Heightened Def Con from 0.000701117 to 0.000701117
Heightened Def Con from 0.00070112 to 0.000701138
Heightened Def Con from 0.000703026 to 0.000703026
Heightened Def Con from 0.000706715 to 0.000706717
Heightened Def Con from 0.000706719 to 0.000706719
Heightened Def Con from 0.00070741 to 0.00070741
Heightened Def Con from 0.000707421 to 0.000707427
Heightened Def Con from 0.000711934 to 0.000711935
Heightened Def Con from 0.000712076 to 0.000712076
Heightened Def Con from 0.000712088 to 0.000712094
Heightened Def Con from 0.000716726 to 0.000716726
Heightened Def Con from 0.000717217 to 0.000717218
Heightened Def Con from 0.000717229 to 0.000717235
Heightened Def Con from 0.00072122 to 0.00072122
Heightened Def Con from 0.000722842 to 0.000722846
Heightened Def Con from 0.000722847 to 0.000722847
Heightened Def Con from 0.000722859 to 0.000722861
Heightened Def Con from 0.000725573 to 0.000725575
Heightened Def Con from 0.000725575 to 0.000725576
Heightened Def Con from 0.000728674 to 0.000728675
Heightened Def Con from 0.000728677 to 0.000728677
Heightened Def Con from 0.00072994 to 0.000729946
Heightened Def Con from 0.000729947 to 0.000729947
Heightened Def Con from 0.000729957 to 0.000729968
Heightened Def Con from 0.000734207 to 0.000734208
Heightened Def Con from 0.000734486 to 0.000734491
Heightened Def Con from 0.000734492 to 0.000734492
Heightened Def Con from 0.000734503 to 0.00073451
Heightened Def Con from 0.000739224 to 0.000739226
Heightened Def Con from 0.000739227 to 0.000739227
Heightened Def Con from 0.000739351 to 0.000739356
Heightened Def Con from 0.000739357 to 0.000739357
Heightened Def Con from 0.000739368 to 0.000739375
Heightened Def Con from 0.000743818 to 0.000743819
Heightened Def Con from 0.000743821 to 0.000743821
Heightened Def Con from 0.000744676 to 0.000744679
Heightened Def Con from 0.000744681 to 0.000744681
Heightened Def Con from 0.000744691 to 0.000744698
Heightened Def Con from 0.000748162 to 0.000748162
Heightened Def Con from 0.000750333 to 0.000750333
Heightened Def Con from 0.000752434 to 0.000752434
Heightened Def Con from 0.000755966 to 0.000755968
Heightened Def Con from 0.000755969 to 0.000755969
Heightened Def Con from 0.000756794 to 0.000756794
Heightened Def Con from 0.000756806 to 0.000756812
Heightened Def Con from 0.000761242 to 0.000761244
Heightened Def Con from 0.000761246 to 0.000761246
Heightened Def Con from 0.000761414 to 0.000761414
Heightened Def Con from 0.000761425 to 0.000761431
Heightened Def Con from 0.000766085 to 0.000766087
Heightened Def Con from 0.000766089 to 0.000766089
Heightened Def Con from 0.000766484 to 0.000766484
Heightened Def Con from 0.000766496 to 0.000766502
Heightened Def Con from 0.000770613 to 0.000770615
Heightened Def Con from 0.000770616 to 0.000770617
Heightened Def Con from 0.000772055 to 0.000772055
Heightened Def Con from 0.000772067 to 0.000772077
Heightened Def Con from 0.000774954 to 0.000774978
Heightened Def Con from 0.00077498 to 0.00077498
Heightened Def Con from 0.00077788 to 0.00077788
Heightened Def Con from 0.000777881 to 0.000777881
Heightened Def Con from 0.000779334 to 0.00077934
Heightened Def Con from 0.000779341 to 0.000779342
Heightened Def Con from 0.000779352 to 0.000779363
Heightened Def Con from 0.000783477 to 0.000783478
Heightened Def Con from 0.000783479 to 0.000783479
Heightened Def Con from 0.000783847 to 0.000783852
Heightened Def Con from 0.000783853 to 0.000783853
Heightened Def Con from 0.000783864 to 0.000783871
Heightened Def Con from 0.000788565 to 0.000788566
Heightened Def Con from 0.000788646 to 0.000788651
Heightened Def Con from 0.000788652 to 0.000788652
Heightened Def Con from 0.000788663 to 0.00078867
Heightened Def Con from 0.000793208 to 0.000793209
Heightened Def Con from 0.000793922 to 0.000793925
Heightened Def Con from 0.000793926 to 0.000793926
Heightened Def Con from 0.000793937 to 0.000793944
Heightened Def Con from 0.000797577 to 0.000797579
Heightened Def Con from 0.00079758 to 0.00079758
Heightened Def Con from 0.000799548 to 0.000799548
Heightened Def Con from 0.000801845 to 0.000801845
Heightened Def Con from 0.000805213 to 0.000805213
Heightened Def Con from 0.000806186 to 0.000806186
Heightened Def Con from 0.000806198 to 0.000806208
Heightened Def Con from 0.000810548 to 0.000810548
Heightened Def Con from 0.000810756 to 0.000810756
Heightened Def Con from 0.000810767 to 0.000810773
Heightened Def Con from 0.000815444 to 0.000815446
Heightened Def Con from 0.000815447 to 0.000815447
Heightened Def Con from 0.000815757 to 0.000815757
Heightened Def Con from 0.000815768 to 0.000815774
Heightened Def Con from 0.000820005 to 0.000820007
Heightened Def Con from 0.000820009 to 0.000820009
Heightened Def Con from 0.000821267 to 0.000821268
Heightened Def Con from 0.000821279 to 0.000821285
Heightened Def Con from 0.000824386 to 0.000824386
Heightened Def Con from 0.000827084 to 0.000827084
Heightened Def Con from 0.000828738 to 0.000828738
Heightened Def Con from 0.000832732 to 0.000832734
Heightened Def Con from 0.000832735 to 0.000832735
Heightened Def Con from 0.000833213 to 0.000833218
Heightened Def Con from 0.000833219 to 0.000833219
Heightened Def Con from 0.00083323 to 0.000833237
Heightened Def Con from 0.000837907 to 0.000837907
Heightened Def Con from 0.000837956 to 0.000837956
Heightened Def Con from 0.000837966 to 0.000837974
Heightened Def Con from 0.000842592 to 0.000842592
Heightened Def Con from 0.000843174 to 0.000843179
Heightened Def Con from 0.00084318 to 0.00084318
Heightened Def Con from 0.000843191 to 0.000843198
Heightened Def Con from 0.000846986 to 0.000846986
Heightened Def Con from 0.000848759 to 0.000848765
Heightened Def Con from 0.000848766 to 0.000848766
Heightened Def Con from 0.000848776 to 0.000848781
Heightened Def Con from 0.000851261 to 0.000851262
Heightened Def Con from 0.000854448 to 0.000854448
Heightened Def Con from 0.000855577 to 0.000855577
Heightened Def Con from 0.000855589 to 0.000855599
Heightened Def Con from 0.000859838 to 0.00085984
Heightened Def Con from 0.000859842 to 0.000859843
Heightened Def Con from 0.000860111 to 0.000860111
Heightened Def Con from 0.000860122 to 0.000860128
Heightened Def Con from 0.000864795 to 0.000864797
Heightened Def Con from 0.000864799 to 0.000864799
Heightened Def Con from 0.000865037 to 0.000865037
Heightened Def Con from 0.000865049 to 0.000865055
Heightened Def Con from 0.000869397 to 0.000869397
Heightened Def Con from 0.000870483 to 0.000870483
Heightened Def Con from 0.000870495 to 0.000870501
Heightened Def Con from 0.000873788 to 0.00087379
Heightened Def Con from 0.000873791 to 0.000873791
Heightened Def Con from 0.00087629 to 0.000876291
Heightened Def Con from 0.000878137 to 0.000878137
Heightened Def Con from 0.000881986 to 0.000881987
Heightened Def Con from 0.000881989 to 0.000881989
Heightened Def Con from 0.000882587 to 0.00088259
Heightened Def Con from 0.000882591 to 0.000882591
Heightened Def Con from 0.000882602 to 0.000882609
Heightened Def Con from 0.000887221 to 0.000887223
Heightened Def Con from 0.000887224 to 0.000887224
Heightened Def Con from 0.000887281 to 0.000887281
Heightened Def Con from 0.000887291 to 0.000887299
Heightened Def Con from 0.000891971 to 0.000891973
Heightened Def Con from 0.000891974 to 0.000891974
Heightened Def Con from 0.000892435 to 0.00089244
Heightened Def Con from 0.000892441 to 0.000892441
Heightened Def Con from 0.000892452 to 0.000892459
Heightened Def Con from 0.000896397 to 0.000896398
Heightened Def Con from 0.000897981 to 0.000897984
Heightened Def Con from 0.000897985 to 0.000897985
Heightened Def Con from 0.000897996 to 0.000898007
Heightened Def Con from 0.000900679 to 0.000900679
Heightened Def Con from 0.00090368 to 0.00090368
Heightened Def Con from 0.00090497 to 0.000904974
Heightened Def Con from 0.000904975 to 0.000904975
Heightened Def Con from 0.000904987 to 0.000904996
Heightened Def Con from 0.000909128 to 0.000909128
Heightened Def Con from 0.000909473 to 0.000909473
Heightened Def Con from 0.000909485 to 0.000909491
Heightened Def Con from 0.000914144 to 0.000914144
Heightened Def Con from 0.000914332 to 0.000914332
Heightened Def Con from 0.000914343 to 0.000914349
Heightened Def Con from 0.000918783 to 0.000918783
Heightened Def Con from 0.000919707 to 0.000919707
Heightened Def Con from 0.000919719 to 0.000919725
Heightened Def Con from 0.000923195 to 0.000923195
Heightened Def Con from 0.000925481 to 0.000925481
Heightened Def Con from 0.000927539 to 0.000927539
Heightened Def Con from 0.000931229 to 0.00093123
Heightened Def Con from 0.000931962 to 0.000931968
Heightened Def Con from 0.000931968 to 0.000931968
Heightened Def Con from 0.000931979 to 0.000931986
Heightened Def Con from 0.000936537 to 0.000936537
Heightened Def Con from 0.000936616 to 0.000936622
Heightened Def Con from 0.000936623 to 0.000936623
Heightened Def Con from 0.000936634 to 0.000936641
Heightened Def Con from 0.00094134 to 0.00094134
Heightened Def Con from 0.000941706 to 0.000941706
Heightened Def Con from 0.000941712 to 0.000941713
Heightened Def Con from 0.000941723 to 0.00094173
Heightened Def Con from 0.000945803 to 0.000945804
Heightened Def Con from 0.000947201 to 0.000947207
Heightened Def Con from 0.000947208 to 0.000947208
Heightened Def Con from 0.000947218 to 0.000947229
Heightened Def Con from 0.000950088 to 0.000950089
Heightened Def Con from 0.00095009 to 0.00095009
Heightened Def Con from 0.000952904 to 0.000952904
Heightened Def Con from 0.000952906 to 0.000952906
Heightened Def Con from 0.00095438 to 0.00095438
Heightened Def Con from 0.000958403 to 0.000958405
Heightened Def Con from 0.000958407 to 0.000958407
Heightened Def Con from 0.000958834 to 0.000958834
Heightened Def Con from 0.000958845 to 0.000958851
Heightened Def Con from 0.000963479 to 0.000963481
Heightened Def Con from 0.000963483 to 0.000963483
Heightened Def Con from 0.000963634 to 0.000963634
Heightened Def Con from 0.000963645 to 0.000963651
Heightened Def Con from 0.000968164 to 0.000968165
Heightened Def Con from 0.000968941 to 0.000968942
Heightened Def Con from 0.000968953 to 0.000968959
Heightened Def Con from 0.000972594 to 0.000972596
Heightened Def Con from 0.000972597 to 0.000972597
Heightened Def Con from 0.000974683 to 0.000974683
Heightened Def Con from 0.000976941 to 0.000976941
Heightened Def Con from 0.000976941 to 0.000976962
Heightened Def Con from 0.000980459 to 0.00098046
Heightened Def Con from 0.000980461 to 0.000980461
Heightened Def Con from 0.000981351 to 0.000981351
Heightened Def Con from 0.000981362 to 0.000981373
Heightened Def Con from 0.00098584 to 0.00098584
Heightened Def Con from 0.000985966 to 0.000985971
Heightened Def Con from 0.000985973 to 0.000985973
Heightened Def Con from 0.000985984 to 0.000985991
Heightened Def Con from 0.000990709 to 0.000990709
Heightened Def Con from 0.000990984 to 0.000990989
Heightened Def Con from 0.000990991 to 0.000990991
Heightened Def Con from 0.000991001 to 0.000991008
Heightened Def Con from 0.000995206 to 0.000995206
Heightened Def Con from 0.000996429 to 0.000996432
Heightened Def Con from 0.000996433 to 0.000996433
Heightened Def Con from 0.000996444 to 0.000996453
Heightened Def Con from 0.000999507 to 0.000999507
Heightened Def Con from 0.00100213 to 0.00100213
Heightened Def Con from 0.00100213 to 0.00100215
Heightened Def Con from 0.00100378 to 0.00100378
Heightened Def Con from 0.00100768 to 0.00100768
Heightened Def Con from 0.00100821 to 0.00100821
Heightened Def Con from 0.00100822 to 0.00100823
Heightened Def Con from 0.00101281 to 0.00101281
Heightened Def Con from 0.00101294 to 0.00101294
Heightened Def Con from 0.00101296 to 0.00101296
Heightened Def Con from 0.00101754 to 0.00101754
Heightened Def Con from 0.00101818 to 0.00101818
Heightened Def Con from 0.00101819 to 0.0010182
Heightened Def Con from 0.001022 to 0.001022
Heightened Def Con from 0.00102387 to 0.00102387
Heightened Def Con from 0.00102388 to 0.00102388
Heightened Def Con from 0.00102388 to 0.00102388
Heightened Def Con from 0.00102634 to 0.00102634
Heightened Def Con from 0.00102968 to 0.00102968
Heightened Def Con from 0.00102968 to 0.00102968
Heightened Def Con from 0.00103073 to 0.00103074
Heightened Def Con from 0.00103074 to 0.00103074
Heightened Def Con from 0.00103075 to 0.00103076
Heightened Def Con from 0.00103513 to 0.00103513
Heightened Def Con from 0.00103532 to 0.00103532
Heightened Def Con from 0.00103533 to 0.00103533
Heightened Def Con from 0.00103534 to 0.00103534
Heightened Def Con from 0.00104007 to 0.00104007
Heightened Def Con from 0.00104028 to 0.00104028
Heightened Def Con from 0.00104029 to 0.00104029
Heightened Def Con from 0.0010446 to 0.0010446
Heightened Def Con from 0.00104567 to 0.00104567
Heightened Def Con from 0.00104568 to 0.00104568
Heightened Def Con from 0.00104892 to 0.00104892
Heightened Def Con from 0.00104892 to 0.00104892
Heightened Def Con from 0.00105135 to 0.00105135
Heightened Def Con from 0.0010532 to 0.0010532
Heightened Def Con from 0.00105694 to 0.00105694
Heightened Def Con from 0.00105758 to 0.00105758
Heightened Def Con from 0.0010576 to 0.0010576
Heightened Def Con from 0.00106214 to 0.00106214
Heightened Def Con from 0.00106227 to 0.00106227
Heightened Def Con from 0.00106691 to 0.00106691
Heightened Def Con from 0.00106691 to 0.00106691
Heightened Def Con from 0.00106743 to 0.00106744
Heightened Def Con from 0.00106745 to 0.00106745
Heightened Def Con from 0.00107139 to 0.0010714
Heightened Def Con from 0.0010714 to 0.0010714
Heightened Def Con from 0.00107308 to 0.00107308
Heightened Def Con from 0.00107309 to 0.0010731
Heightened Def Con from 0.00107575 to 0.00107575
Heightened Def Con from 0.0010789 to 0.0010789
Heightened Def Con from 0.0010789 to 0.0010789
Heightened Def Con from 0.00108012 to 0.00108012
Heightened Def Con from 0.00108013 to 0.00108013
Heightened Def Con from 0.00108014 to 0.00108015
Heightened Def Con from 0.00108442 to 0.00108442
Heightened Def Con from 0.00108465 to 0.00108468
Heightened Def Con from 0.00108468 to 0.00108468
Heightened Def Con from 0.00108469 to 0.0010847
Heightened Def Con from 0.00108942 to 0.00108942
Heightened Def Con from 0.00108956 to 0.00108956
Heightened Def Con from 0.00108957 to 0.00108957
Heightened Def Con from 0.00108958 to 0.00108958
Heightened Def Con from 0.00109399 to 0.00109399
Heightened Def Con from 0.0010949 to 0.0010949
Heightened Def Con from 0.0010949 to 0.0010949
Heightened Def Con from 0.00109491 to 0.00109492
Heightened Def Con from 0.00109833 to 0.00109833
Heightened Def Con from 0.00109833 to 0.00109833
Heightened Def Con from 0.00110056 to 0.00110056
Heightened Def Con from 0.0011026 to 0.0011026
Heightened Def Con from 0.0011026 to 0.00110262
Heightened Def Con from 0.00110619 to 0.00110619
Heightened Def Con from 0.00110697 to 0.00110697
Heightened Def Con from 0.00110698 to 0.00110699
Heightened Def Con from 0.00111144 to 0.00111145
Heightened Def Con from 0.00111145 to 0.00111145
Heightened Def Con from 0.0011116 to 0.0011116
Heightened Def Con from 0.00111162 to 0.00111162
Heightened Def Con from 0.00111627 to 0.00111628
Heightened Def Con from 0.00111628 to 0.00111628
Heightened Def Con from 0.00111669 to 0.00111669
Heightened Def Con from 0.00111671 to 0.00111671
Heightened Def Con from 0.00112079 to 0.00112079
Heightened Def Con from 0.00112229 to 0.00112229
Heightened Def Con from 0.0011223 to 0.00112231
Heightened Def Con from 0.00112515 to 0.00112515
Heightened Def Con from 0.00112515 to 0.00112515
Heightened Def Con from 0.00112811 to 0.00112811
Heightened Def Con from 0.00112951 to 0.00112952
Heightened Def Con from 0.00112952 to 0.00112952
Heightened Def Con from 0.00112953 to 0.00112953
Heightened Def Con from 0.00113368 to 0.00113368
Heightened Def Con from 0.00113403 to 0.00113404
Heightened Def Con from 0.00113404 to 0.00113404
Heightened Def Con from 0.00113405 to 0.00113406
Heightened Def Con from 0.00113876 to 0.00113876
Heightened Def Con from 0.00113885 to 0.00113886
Heightened Def Con from 0.00113886 to 0.00113886
Heightened Def Con from 0.00113887 to 0.00113888
Heightened Def Con from 0.00114338 to 0.00114338
Heightened Def Con from 0.00114414 to 0.00114415
Heightened Def Con from 0.00114415 to 0.00114415
Heightened Def Con from 0.00114416 to 0.00114416
Heightened Def Con from 0.00114774 to 0.00114774
Heightened Def Con from 0.00114978 to 0.00114978
Heightened Def Con from 0.00115202 to 0.00115202
Heightened Def Con from 0.00115202 to 0.00115204
Heightened Def Con from 0.00115543 to 0.00115543
Heightened Def Con from 0.00115636 to 0.00115636
Heightened Def Con from 0.00115637 to 0.00115638
Heightened Def Con from 0.00116075 to 0.00116075
Heightened Def Con from 0.00116075 to 0.00116075
Heightened Def Con from 0.00116095 to 0.00116095
Heightened Def Con from 0.00116096 to 0.00116097
Heightened Def Con from 0.00116564 to 0.00116564
Heightened Def Con from 0.00116596 to 0.00116596
Heightened Def Con from 0.00116598 to 0.00116598
Heightened Def Con from 0.00117018 to 0.00117018
Heightened Def Con from 0.00117019 to 0.00117019
Heightened Def Con from 0.00117149 to 0.00117149
Heightened Def Con from 0.0011715 to 0.00117151
Heightened Def Con from 0.00117456 to 0.00117456
Heightened Def Con from 0.00117731 to 0.00117731
Heightened Def Con from 0.00117891 to 0.00117891
Heightened Def Con from 0.00117891 to 0.00117891
Heightened Def Con from 0.00118295 to 0.00118295
Heightened Def Con from 0.00118295 to 0.00118295
Heightened Def Con from 0.0011834 to 0.0011834
Heightened Def Con from 0.0011834 to 0.0011834
Heightened Def Con from 0.00118341 to 0.00118342
Heightened Def Con from 0.00118809 to 0.00118809
Heightened Def Con from 0.00118815 to 0.00118816
Heightened Def Con from 0.00118816 to 0.00118816
Heightened Def Con from 0.00118817 to 0.00118818
Heightened Def Con from 0.00119277 to 0.00119277
Heightened Def Con from 0.00119339 to 0.0011934
Heightened Def Con from 0.0011934 to 0.0011934
Heightened Def Con from 0.00119341 to 0.00119342
Heightened Def Con from 0.00119716 to 0.00119716
Heightened Def Con from 0.00119899 to 0.00119899
Heightened Def Con from 0.00119899 to 0.00119899
Heightened Def Con from 0.00119901 to 0.00119902
Heightened Def Con from 0.00120143 to 0.00120143
Heightened Def Con from 0.00120143 to 0.00120143
Heightened Def Con from 0.00120467 to 0.00120467
Heightened Def Con from 0.00120575 to 0.00120575
Heightened Def Con from 0.00120577 to 0.00120577
Heightened Def Con from 0.00121005 to 0.00121005
Heightened Def Con from 0.0012103 to 0.0012103
Heightened Def Con from 0.00121031 to 0.00121032
Heightened Def Con from 0.00121499 to 0.00121499
Heightened Def Con from 0.00121524 to 0.00121524
Heightened Def Con from 0.00121525 to 0.00121526
Heightened Def Con from 0.00121957 to 0.00121958
Heightened Def Con from 0.00121958 to 0.00121958
Heightened Def Con from 0.00122071 to 0.00122071
Heightened Def Con from 0.00122072 to 0.00122073
Heightened Def Con from 0.00122397 to 0.00122397
Heightened Def Con from 0.00122652 to 0.00122652
Heightened Def Con from 0.00122652 to 0.00122654
Heightened Def Con from 0.00122831 to 0.00122831
Heightened Def Con from 0.0012322 to 0.0012322
Heightened Def Con from 0.00123278 to 0.00123278
Heightened Def Con from 0.00123279 to 0.00123279
Heightened Def Con from 0.00123742 to 0.00123743
Heightened Def Con from 0.00123743 to 0.00123743
Heightened Def Con from 0.00123748 to 0.00123748
Heightened Def Con from 0.00123749 to 0.0012375
Heightened Def Con from 0.00124215 to 0.00124215
Heightened Def Con from 0.00124265 to 0.00124266
Heightened Def Con from 0.00124266 to 0.00124266
Heightened Def Con from 0.00124267 to 0.00124268
Heightened Def Con from 0.00124656 to 0.00124656
Heightened Def Con from 0.00124657 to 0.00124657
Heightened Def Con from 0.00124821 to 0.00124821
Heightened Def Con from 0.00124823 to 0.00124824
Heightened Def Con from 0.00125084 to 0.00125084
Heightened Def Con from 0.00125085 to 0.00125085
Heightened Def Con from 0.0012539 to 0.00125391
Heightened Def Con from 0.00125391 to 0.00125391
Heightened Def Con from 0.00125514 to 0.00125515
Heightened Def Con from 0.00125515 to 0.00125515
Heightened Def Con from 0.00125516 to 0.00125517
Heightened Def Con from 0.00125934 to 0.00125934
Heightened Def Con from 0.00125966 to 0.00125966
Heightened Def Con from 0.00125967 to 0.00125968
Heightened Def Con from 0.00126433 to 0.00126434
Heightened Def Con from 0.00126434 to 0.00126434
Heightened Def Con from 0.00126454 to 0.00126454
Heightened Def Con from 0.00126455 to 0.00126456
Heightened Def Con from 0.00126896 to 0.00126896
Heightened Def Con from 0.00126993 to 0.00126993
Heightened Def Con from 0.00126994 to 0.00126995
Heightened Def Con from 0.00127337 to 0.00127337
Heightened Def Con from 0.00127337 to 0.00127337
Heightened Def Con from 0.00127572 to 0.00127572
Heightened Def Con from 0.00127771 to 0.00127771
Heightened Def Con from 0.00128145 to 0.00128145
Heightened Def Con from 0.00128215 to 0.00128215
Heightened Def Con from 0.00128215 to 0.00128215
Heightened Def Con from 0.00128216 to 0.00128217
Heightened Def Con from 0.00128673 to 0.00128673
Heightened Def Con from 0.00128681 to 0.00128682
Heightened Def Con from 0.00128682 to 0.00128682
Heightened Def Con from 0.00128683 to 0.00128683
Heightened Def Con from 0.00129152 to 0.00129152
Heightened Def Con from 0.00129192 to 0.00129193
Heightened Def Con from 0.00129193 to 0.00129193
Heightened Def Con from 0.00129194 to 0.00129194
Heightened Def Con from 0.00129597 to 0.00129597
Heightened Def Con from 0.00129743 to 0.00129743
Heightened Def Con from 0.00129744 to 0.00129744
Heightened Def Con from 0.00129745 to 0.00129745
Heightened Def Con from 0.00130026 to 0.00130026
Heightened Def Con from 0.00130313 to 0.00130313
Heightened Def Con from 0.00130313 to 0.00130314
Heightened Def Con from 0.00130455 to 0.00130455
Heightened Def Con from 0.00130456 to 0.00130457
Heightened Def Con from 0.00130862 to 0.00130862
Heightened Def Con from 0.00130902 to 0.00130902
Heightened Def Con from 0.00130903 to 0.00130904
Heightened Def Con from 0.00131368 to 0.00131368
Heightened Def Con from 0.00131384 to 0.00131384
Heightened Def Con from 0.00131385 to 0.00131385
Heightened Def Con from 0.00131835 to 0.00131835
Heightened Def Con from 0.00131916 to 0.00131916
Heightened Def Con from 0.00131917 to 0.00131918
Heightened Def Con from 0.00132277 to 0.00132277
Heightened Def Con from 0.00132277 to 0.00132277
Heightened Def Con from 0.00132491 to 0.00132491
Heightened Def Con from 0.00132712 to 0.00132712
Heightened Def Con from 0.00132712 to 0.00132714
Heightened Def Con from 0.00133069 to 0.00133069
Heightened Def Con from 0.00133152 to 0.00133153
Heightened Def Con from 0.00133153 to 0.00133153
Heightened Def Con from 0.00133154 to 0.00133155
Heightened Def Con from 0.00133604 to 0.00133604
Heightened Def Con from 0.00133604 to 0.00133604
Heightened Def Con from 0.00133616 to 0.00133616
Heightened Def Con from 0.00133616 to 0.00133616
Heightened Def Con from 0.00133617 to 0.00133618
Heightened Def Con from 0.0013412 to 0.0013412
Heightened Def Con from 0.0013412 to 0.0013412
Heightened Def Con from 0.00134121 to 0.00134122
Heightened Def Con from 0.00134537 to 0.00134537
Heightened Def Con from 0.00134665 to 0.00134666
Heightened Def Con from 0.00134666 to 0.00134666
Heightened Def Con from 0.00134667 to 0.00134668
Heightened Def Con from 0.00134967 to 0.00134967
Heightened Def Con from 0.00134967 to 0.00134967
Heightened Def Con from 0.00135236 to 0.00135236
Heightened Def Con from 0.00135236 to 0.00135236
Heightened Def Con from 0.00135395 to 0.00135396
Heightened Def Con from 0.00135396 to 0.00135396
Heightened Def Con from 0.00135789 to 0.00135789
Heightened Def Con from 0.00135789 to 0.00135789
Heightened Def Con from 0.00135839 to 0.00135839
Heightened Def Con from 0.00135841 to 0.00135841
Heightened Def Con from 0.00136301 to 0.00136301
Heightened Def Con from 0.00136314 to 0.00136314
Heightened Def Con from 0.00136315 to 0.00136316
Heightened Def Con from 0.00136772 to 0.00136772
Heightened Def Con from 0.00136772 to 0.00136772
Heightened Def Con from 0.0013684 to 0.0013684
Heightened Def Con from 0.00136841 to 0.00136842
Heightened Def Con from 0.00137217 to 0.00137217
Heightened Def Con from 0.00137217 to 0.00137217
Heightened Def Con from 0.00137411 to 0.00137411
Heightened Def Con from 0.00137411 to 0.00137411
Heightened Def Con from 0.00137652 to 0.00137652
Heightened Def Con from 0.00137991 to 0.00137991
Heightened Def Con from 0.00137991 to 0.00137991
Heightened Def Con from 0.00138092 to 0.00138092
Heightened Def Con from 0.00138093 to 0.00138093
Heightened Def Con from 0.00138534 to 0.00138534
Heightened Def Con from 0.00138534 to 0.00138534
Heightened Def Con from 0.00138551 to 0.00138551
Heightened Def Con from 0.00138553 to 0.00138553
Heightened Def Con from 0.00139025 to 0.00139025
Heightened Def Con from 0.00139048 to 0.00139048
Heightened Def Con from 0.00139048 to 0.00139048
Heightened Def Con from 0.0013905 to 0.0013905
Heightened Def Con from 0.00139478 to 0.00139478
Heightened Def Con from 0.00139478 to 0.00139478
Heightened Def Con from 0.00139588 to 0.00139589
Heightened Def Con from 0.00139589 to 0.00139589
Heightened Def Con from 0.0013959 to 0.00139591
Heightened Def Con from 0.00139909 to 0.00139909
Heightened Def Con from 0.00139909 to 0.00139909
Heightened Def Con from 0.00140158 to 0.00140158
Heightened Def Con from 0.00140336 to 0.00140336
Heightened Def Con from 0.00140715 to 0.00140715
Heightened Def Con from 0.00140715 to 0.00140715
Heightened Def Con from 0.00140777 to 0.00140777
Heightened Def Con from 0.00140778 to 0.00140779
Heightened Def Con from 0.00141233 to 0.00141233
Heightened Def Con from 0.00141234 to 0.00141234
Heightened Def Con from 0.00141246 to 0.00141246
Heightened Def Con from 0.00141247 to 0.00141248
Heightened Def Con from 0.0014171 to 0.0014171
Heightened Def Con from 0.00141765 to 0.00141765
Heightened Def Con from 0.00141766 to 0.00141767
Heightened Def Con from 0.00142157 to 0.00142157
Heightened Def Con from 0.00142331 to 0.00142331
Heightened Def Con from 0.00142331 to 0.00142331
Heightened Def Con from 0.00142332 to 0.00142333
Heightened Def Con from 0.00142593 to 0.00142593
Heightened Def Con from 0.00142913 to 0.00142913
Heightened Def Con from 0.0014303 to 0.0014303
Heightened Def Con from 0.00143031 to 0.00143031
Heightened Def Con from 0.00143032 to 0.00143033
Heightened Def Con from 0.00143463 to 0.00143463
Heightened Def Con from 0.00143486 to 0.00143486
Heightened Def Con from 0.00143487 to 0.00143487
Heightened Def Con from 0.00143487 to 0.00143487
Heightened Def Con from 0.00143488 to 0.00143489
Heightened Def Con from 0.0014396 to 0.0014396
Heightened Def Con from 0.0014396 to 0.0014396
Heightened Def Con from 0.00143977 to 0.00143977
Heightened Def Con from 0.00143977 to 0.00143977
Heightened Def Con from 0.00143979 to 0.00143979
Heightened Def Con from 0.00144417 to 0.00144417
Heightened Def Con from 0.00144512 to 0.00144512
Heightened Def Con from 0.00144513 to 0.00144513
Heightened Def Con from 0.00144514 to 0.00144514
Heightened Def Con from 0.0014485 to 0.00144851
Heightened Def Con from 0.00144851 to 0.00144851
Heightened Def Con from 0.00145079 to 0.00145079
Heightened Def Con from 0.00145277 to 0.00145277
Heightened Def Con from 0.00145641 to 0.00145641
Heightened Def Con from 0.00145641 to 0.00145641
Heightened Def Con from 0.00145715 to 0.00145715
Heightened Def Con from 0.00145717 to 0.00145717
Heightened Def Con from 0.00146165 to 0.00146165
Heightened Def Con from 0.00146165 to 0.00146165
Heightened Def Con from 0.00146179 to 0.00146179
Heightened Def Con from 0.00146181 to 0.00146181
Heightened Def Con from 0.00146646 to 0.00146646
Heightened Def Con from 0.00146691 to 0.00146691
Heightened Def Con from 0.00146692 to 0.00146693
Heightened Def Con from 0.00147097 to 0.00147097
Heightened Def Con from 0.00147252 to 0.00147252
Heightened Def Con from 0.00147253 to 0.00147254
Heightened Def Con from 0.00147533 to 0.00147533
Heightened Def Con from 0.00147834 to 0.00147834
Heightened Def Con from 0.00147834 to 0.00147834
Heightened Def Con from 0.00147969 to 0.0014797
Heightened Def Con from 0.0014797 to 0.0014797
Heightened Def Con from 0.00147971 to 0.00147972
Heightened Def Con from 0.0014839 to 0.0014839
Heightened Def Con from 0.0014842 to 0.00148423
Heightened Def Con from 0.00148423 to 0.00148423
Heightened Def Con from 0.00148424 to 0.00148425
Heightened Def Con from 0.00148895 to 0.00148895
Heightened Def Con from 0.00148895 to 0.00148895
Heightened Def Con from 0.00148906 to 0.00148907
Heightened Def Con from 0.00148907 to 0.00148907
Heightened Def Con from 0.00148908 to 0.00148909
Heightened Def Con from 0.00149356 to 0.00149356
Heightened Def Con from 0.00149437 to 0.00149437
Heightened Def Con from 0.00149438 to 0.00149439
Heightened Def Con from 0.00149792 to 0.00149792
Heightened Def Con from 0.00149792 to 0.00149792
N-Period=1
Fourier components of V(vo)
DC component:-0.284449

Harmonic	Frequency	 Fourier 	Normalized	 Phase  	Normalized
 Number 	  [Hz]   	Component	 Component	[degree]	Phase [deg]
    1   	2.000e+04	2.831e+01	1.000e+00	  -32.14°	    0.00°
    2   	4.000e+04	5.497e-02	1.942e-03	  -41.57°	   -9.43°
    3   	6.000e+04	1.063e-01	3.753e-03	   28.41°	   60.56°
Total Harmonic Distortion: 0.422589%(5.522547%)



Date: Sun Mar 01 22:59:10 2020
Total elapsed time: 591.059 seconds.

tnom = 27
temp = 27
method = modified trap
totiter = 3654838
traniter = 3654838
tranpoints = 1104658
accept = 822010
rejected = 283344
matrix size = 370
fillins = 558
solver = Alternate
Thread vector: 122.9/87.1[5] 41.6/65.4[1] 25.7/45.0[1] 7.1/91.2[1]  2592/500
Matrix Compiler1: 64.41 KB object code size  38.6/24.4/[11.9]
Matrix Compiler2: 42.59 KB object code size  19.3/19.8/[8.0]

