
**** 04/04/20 19:40:05 ****** PSpice 17.2.0 (March 2016) ****** ID# 0 ********

 ** Profile: "SCHEMATIC1-1K"  [ C:\Users\emanu\Desktop\DCE-GRUPO10\REALIMENTADOR\PSpice\Realimentador-PSpiceFiles\SCHEMATIC1\1K.sim ]


 ****     CIRCUIT DESCRIPTION


******************************************************************************




** Creating circuit file "1K.cir" 
** WARNING: THIS AUTOMATICALLY GENERATED FILE MAY BE OVERWRITTEN BY SUBSEQUENT SIMULATIONS

*Libraries: 
* Profile Libraries :
* Local Libraries :
.LIB "../../../lib/ucc20520_pspice_trans/ucc20520_trans.lib" 
* From [PSPICE NETLIST] section of D:\Cadence\SPB_Data\cdssetup\OrCAD_PSpice\17.2.0\PSpice.ini file:
.lib "nom.lib" 

*Analysis directives: 
.TRAN  0 11m 1m 
.FOUR 1k 9 V([VO]) 
.OPTIONS ADVCONV
.OPTIONS SOLVER= 1
.OPTIONS METHOD= Default
.OPTIONS SPEED_LEVEL= 0
.AUTOCONVERGE ITL1=1000 ITL2=1000 ITL4=1000 RELTOL=0.05 ABSTOL=1.0E-6 VNTOL=.001 PIVTOL=1.0E-10 
.PROBE64 V(alias(*)) I(alias(*)) W(alias(*)) D(alias(*)) NOISE(alias(*)) 
.INC "..\SCHEMATIC1.net" 



**** INCLUDING SCHEMATIC1.net ****
* source REALIMENTADOR
V_V3         VCC 0 30Vdc
V_V5         5V 0 5Vdc
V_V4         0 VEE 30Vdc
V_V6         N32277 0  
+SIN 0 1.1 1k 0 0 0
R_R14         N32061 VS  19k TC=0,0 
R_R15         0 N32061  1k TC=0,0 
R_R16         N32277 N32247  1k TC=0,0 
R_R17         0 N32247  82k TC=0,0 
C_C11         0 N32247  220p  TC=0,0 
R_R18         N36228 N36123  1k TC=0,0 
R_R19         N36228 VERROR  82k TC=0,0 
C_C12         N36228 VERROR  220p  TC=0,0 
V_V2         VTRIANG 0  
+PULSE -1.5 1.5 0 2.499u 2.499u 1n 5u
R_R21         PWM_IN N37031  51 TC=0,0 
C_C13         0 PWM_IN  33p  TC=0,0 
R_R20         N37031 5V  1k TC=0,0 
X_U7         VERROR VTRIANG 15V -15V N37031 0 LM311 
R_R11         0 N44266  1 TC=0,0 
R_R1         0 N44408  2.2k TC=0,0 
C_C4         VEE N44156  220n  TC=0,0 
C_C3         VEE N44156  10u  TC=0,0 
C_C5         VS N44046  1u  TC=0,0 
R_R9         N44324 0  1 TC=0,0 
C_C2         VEE N44156  10u  TC=0,0 
R_R8         N44236 0  1 TC=0,0 
C_C6         VS N44046  100n  TC=0,0 
C_C1         0 N44408  2.2n  TC=0,0 
D_D6         N44064 N44046 D1N4148 
R_R10         0 N44352  1 TC=0,0 
V_V1         N44156 VEE 12Vdc
X_U1         0 N44408 0 N44266 N44352 N44324 N44236 HO LO PWM_IN 5V 5V N44046
+  N44156 VS VEE UCC20520_TRANS
R_R2         N44156 N44064  10 TC=0,0 
X_M1         VCC N45286 VS PHB27NQ10T/PLP
R_R7         0 VO  8 TC=0,0 
C_C7         VS N45286  1n  TC=0,0 
C_C8         VEE N45510  1n  TC=0,0 
R_R5         N45280 N45286  1.2 TC=0,0 
D_D3         N45280 HO MURS320T3G 
L_L1         VS VO  33u  
R_R3         LO N45510  3.3 TC=0,0 
D_D4         N45504 LO MURS320T3G 
R_R6         N45504 N45510  1.2 TC=0,0 
C_C9         0 VO  330n  TC=0,0 
X_M2         VS N45510 VEE PHB27NQ10T/PLP
R_R4         HO N45286  3.3 TC=0,0 
X_U8         N32247 N36228 15V -15V VERROR AD817/AD
X_U9         N32061 N36123 15V -15V N36123 AD817/AD

**** RESUMING 1K.cir ****
.END

**** 04/04/20 19:40:05 ****** PSpice 17.2.0 (March 2016) ****** ID# 0 ********

 ** Profile: "SCHEMATIC1-1K"  [ C:\Users\emanu\Desktop\DCE-GRUPO10\REALIMENTADOR\PSpice\Realimentador-PSpiceFiles\SCHEMATIC1\1K.sim ]


 ****     Diode MODEL PARAMETERS


******************************************************************************




               D1N4148         MURS320T3G      X_U7.dx         X_M1.Dbody      
          IS    2.682000E-09   23.789000E-09  800.000000E-18   10.000000E-15 
           N    1.836           1.6119                           .85         
         ISR    1.565000E-09   19.406000E-09                                 
          NR                    3.5766                                       
         IKF     .04417        61.67                            1.000000E+03 
          BV  100             200                             100            
         IBV  100.000000E-06  800.000000E-09                  250.000000E-06 
          RS     .5664          8.451400E-03                    8.300000E-03 
          TT   11.540000E-09   35.000000E-09                   60.000000E-09 
         CJO    4.000000E-12  137.580000E-12                                 
          VJ     .5             1.4981                           .4          
           M     .3333           .49862                                      
          EG                    1.0274                                       
         XTI                    5.000000E-09                                 


               X_M2.Dbody      X_U8.DX         X_U9.DX         X_U1.X_U48.dd   
          IS   10.000000E-15   10.000000E-15   10.000000E-15   10.000000E-15 
           N     .85                                            1.000000E-03 
         IKF    1.000000E+03                                                 
          BV  100                                                            
         IBV  250.000000E-06                                                 
          RS    8.300000E-03                                                 
          TT   60.000000E-09                                                 
          VJ     .4                                                          


               X_U1.X_U40.dd   X_U1.X_U47.dd   X_U1.X_U57.dd   X_U1.X_U55.dd   
          IS   10.000000E-15   10.000000E-15   10.000000E-15   10.000000E-15 
           N    1.000000E-03    1.000000E-03    1.000000E-03    1.000000E-03 


               X_U1.X_U33.dd   X_U1.X_U37.dd   X_U1.X_U38.dd   X_U1.X_U35.dd   
          IS   10.000000E-15   10.000000E-15   10.000000E-15   10.000000E-15 
           N    1.000000E-03    1.000000E-03    1.000000E-03    1.000000E-03 


               X_U1.X_U56.dd   X_U1.X_U59.dd   X_U1.X_U60.dd   X_U1.X_U39.dd   
          IS   10.000000E-15   10.000000E-15   10.000000E-15   10.000000E-15 
           N    1.000000E-03    1.000000E-03    1.000000E-03    1.000000E-03 


**** 04/04/20 19:40:05 ****** PSpice 17.2.0 (March 2016) ****** ID# 0 ********

 ** Profile: "SCHEMATIC1-1K"  [ C:\Users\emanu\Desktop\DCE-GRUPO10\REALIMENTADOR\PSpice\Realimentador-PSpiceFiles\SCHEMATIC1\1K.sim ]


 ****     BJT MODEL PARAMETERS


******************************************************************************




               X_U7.qin        X_U7.qmi        X_U7.qmo        X_U7.qoc        
               PNP             NPN             NPN             NPN             
       LEVEL    1               1               1               1            
          IS  800.000000E-18  800.000000E-18  800.000000E-18  800.000000E-18 
          BF  500               1.002000E+03    1.000000E+03  206.900000E+03 
          NF    1               1               1               1            
          BR    1               1               1               1            
          NR    1               1               1               1            
         ISS    0               0               0               0            
          RE    0               0               0               0            
          RC    0               0               0               0            
         CJE    0               0               0               0            
         VJE     .75             .75             .75             .75         
         CJC    0               0               1.000000E-15    1.000000E-15 
         VJC     .75             .75             .75             .75         
         MJC     .33             .33             .33             .33         
        XCJC    1               1               1               1            
         CJS    0               0               0               0            
         VJS     .75             .75             .75             .75         
          TF                                                    7.855000E-12 
          TR                                  124.200000E-09   83.830000E-09 
          KF    0               0               0               0            
          AF    1               1               1               1            
          CN    2.2             2.42            2.42            2.42         
           D     .52             .87             .87             .87         


               X_U8.QN         X_U9.QN         
               NPN             NPN             
       LEVEL    1               1            
          IS  100.000000E-18  100.000000E-18 
          BF  151.52          151.52         
          NF    1               1            
          BR    1               1            
          NR    1               1            
         ISS    0               0            
          RE    0               0            
          RC    0               0            
         CJE    0               0            
         VJE     .75             .75         
         CJC    0               0            
         VJC     .75             .75         
         MJC     .33             .33         
        XCJC    1               1            
         CJS    0               0            
         VJS     .75             .75         
          KF    0               0            
          AF    1               1            
          CN    2.42            2.42         
           D     .87             .87         


**** 04/04/20 19:40:05 ****** PSpice 17.2.0 (March 2016) ****** ID# 0 ********

 ** Profile: "SCHEMATIC1-1K"  [ C:\Users\emanu\Desktop\DCE-GRUPO10\REALIMENTADOR\PSpice\Realimentador-PSpiceFiles\SCHEMATIC1\1K.sim ]


 ****     MOSFET MODEL PARAMETERS


******************************************************************************




               X_M1.MOST1      X_M1.MOST2      X_M2.MOST1      X_M2.MOST2      
               NMOS            NMOS            NMOS            NMOS            
       LEVEL    3               3               3               3            
           L  300.000000E-09  300.000000E-09  300.000000E-09  300.000000E-09 
           W     .1              .1              .1              .1          
         VTO    3.73           -2.7             3.73           -2.7          
          KP   40.800000E-06   40.800000E-06   40.800000E-06   40.800000E-06 
       GAMMA    0               0               0               0            
         PHI     .6              .6              .6              .6          
      LAMBDA    0               0               0               0            
          RD                    1.000000E+03                    1.000000E+03 
          RS                    1.000000E+03                    1.000000E+03 
          IS    0               0               0               0            
          JS    0               0               0               0            
          PB     .8              .8              .8              .8          
        PBSW     .8              .8              .8              .8          
          CJ    0               0               0               0            
        CJSW    0               0               0               0            
        CGSO    0               0               0               0            
        CGDO    0               0               0               0            
        CGBO    0               0               0               0            
         NFS    1.100000E+12                    1.100000E+12                 
         TOX  100.000000E-09  100.000000E-09  100.000000E-09  100.000000E-09 
          XJ  500.000000E-09  500.000000E-09  500.000000E-09  500.000000E-09 
          UO  650             650             650             650            
       UCRIT   10.000000E+03   10.000000E+03   10.000000E+03   10.000000E+03 
       DELTA     .1              .1              .1              .1          
         ETA  100.000000E-06  100.000000E-06  100.000000E-06  100.000000E-06 
       KAPPA     .1              .1              .1              .1          
      DIOMOD    1               1               1               1            
         VFB    0               0               0               0            
        LETA    0               0               0               0            
        WETA    0               0               0               0            
          U0    0               0               0               0            
        TEMP    0               0               0               0            
         VDD    5               5               5               5            
       XPART    0               0               0               0            


               X_U1.X_M13._mod X_U1.X_M15._mod X_U1.X_M14._mod X_U1.X_M12._mod 
               NMOS            NMOS            NMOS            NMOS            
       LEVEL    1               1               1               1            
           L   10.000000E-09   10.000000E-09   10.000000E-09   10.000000E-09 
           W    2.4             2.4              .285            .285        
         VTO    0               0               0               0            
          KP    2.000000E-09    2.000000E-09    2.000000E-09    2.000000E-09 
       GAMMA    0               0               0               0            
         PHI     .6              .6              .6              .6          
      LAMBDA    0               0               0               0            
          IS   10.000000E-15   10.000000E-15   10.000000E-15   10.000000E-15 
          JS    0               0               0               0            
           N    2.5             2.5             2.5             2.5          
          PB     .8              .8              .8              .8          
        PBSW     .8              .8              .8              .8          
          CJ    0               0               0               0            
        CJSW    0               0               0               0            
        CGSO    0               0               0               0            
        CGDO    0               0               0               0            
        CGBO    0               0               0               0            
         TOX    0               0               0               0            
          XJ    0               0               0               0            
       UCRIT   10.000000E+03   10.000000E+03   10.000000E+03   10.000000E+03 
      DIOMOD    1               1               1               1            
         VFB    0               0               0               0            
        LETA    0               0               0               0            
        WETA    0               0               0               0            
          U0    0               0               0               0            
        TEMP    0               0               0               0            
         VDD    5               5               5               5            
       XPART    0               0               0               0            


**** 04/04/20 19:40:05 ****** PSpice 17.2.0 (March 2016) ****** ID# 0 ********

 ** Profile: "SCHEMATIC1-1K"  [ C:\Users\emanu\Desktop\DCE-GRUPO10\REALIMENTADOR\PSpice\Realimentador-PSpiceFiles\SCHEMATIC1\1K.sim ]


 ****     Resistor MODEL PARAMETERS


******************************************************************************




               X_M1.Rtemp      X_M2.Rtemp      
           R    1               1            
         TC1    6.810000E-03    6.810000E-03 
         TC2   28.600000E-06   28.600000E-06 


**** 04/04/20 19:40:05 ****** PSpice 17.2.0 (March 2016) ****** ID# 0 ********

 ** Profile: "SCHEMATIC1-1K"  [ C:\Users\emanu\Desktop\DCE-GRUPO10\REALIMENTADOR\PSpice\Realimentador-PSpiceFiles\SCHEMATIC1\1K.sim ]


 ****     Voltage Controlled Switch MODEL PARAMETERS


******************************************************************************




               X_U1.X_S1._S1   X_U1.X_S6._S6   X_U1.X_S3._S3   X_U1.X_S4._S4   
         RON     .01            5.000000E-03   25               5.000000E-03 
        ROFF    1.000000E+09    1.000000E+06    1.000000E+06    1.000000E+06 
         VON    4               4.5             4.5             4.5          
        VOFF    1                .5              .5              .5          


               X_U1.X_S5._S5   X_U1.X_S2._S2   
         RON   25                .01         
        ROFF    1.000000E+06    1.000000E+09 
         VON    4.5             4            
        VOFF     .5             1            


**** 04/04/20 19:40:05 ****** PSpice 17.2.0 (March 2016) ****** ID# 0 ********

 ** Profile: "SCHEMATIC1-1K"  [ C:\Users\emanu\Desktop\DCE-GRUPO10\REALIMENTADOR\PSpice\Realimentador-PSpiceFiles\SCHEMATIC1\1K.sim ]


 ****     INITIAL TRANSIENT SOLUTION       TEMPERATURE =   27.000 DEG C


******************************************************************************



 NODE   VOLTAGE     NODE   VOLTAGE     NODE   VOLTAGE     NODE   VOLTAGE


(   5V)    5.0000  (   HO)-663.3E-06  (   LO)  -30.0000  (   VO)-1.365E-06      

(   VS)-1.365E-06  (  15V)    1.1252  (  VCC)   30.0000  (  VEE)  -30.0000      

( -15V)   -1.1240  (N32061)    -.0031 (N32247)    -.0032 (N32277)    0.0000     

(N36123) 552.4E-06 (N36228)    -.0027 (N37031)    4.9751 (N44046)    -.0013     

(N44064)  -18.0000 (N44156)  -18.0000 (N44236)    0.0000 (N44266)    0.0000     

(N44324)    0.0000 (N44352)    0.0000 (N44408)    4.9977 (N45280)-663.3E-06     

(N45286)-663.3E-06 (N45504)  -30.0000 (N45510)  -30.0000 (PWM_IN)    4.9739     

(VERROR) 609.3E-06 (X_M1.4)    2.9359 (X_M1.5)   30.0000 (X_M1.6)-663.3E-06     

(X_M2.4)  -27.0630 (X_M2.5)-1.365E-06 (X_M2.6)  -30.0000 (X_U7.7)    -.3883     

(X_U7.8)    -.4747 (X_U7.9)   -1.1061 (X_U8.3)    -.0027 (X_U8.4)     .5351     

(X_U8.5)     .5351 (X_U8.6)    -.7588 (X_U8.7)    -.7588 (X_U8.8)   -1.3273     

(X_U8.9) 609.6E-06 (X_U9.3)    -.0026 (X_U9.4)     .5335 (X_U9.5)     .5367     

(X_U9.6)    -.7556 (X_U9.7)    -.7586 (X_U9.8)   -1.3256 (X_U9.9) 604.8E-06     

(VTRIANG)   -1.5000                   (X_M1.11)   30.0000                       

(X_M1.12)   30.0000                   (X_M1.22)-663.3E-06                       

(X_M1.33)-1.365E-06                   (X_M2.11)-1.365E-06                       

(X_M2.12)-1.365E-06                   (X_M2.22)  -30.0000                       

(X_M2.33)  -30.0000                   (X_U7.10)     .0179                       

(X_U7.11)     .0179                   (X_U7.21)     .4506                       

(X_U7.22)   -1.0500                   (X_U8.10)    -.7048                       

(X_U8.11)     .7060                   (X_U8.14)    -.0030                       

(X_U8.15) 609.7E-06                   (X_U8.31) 609.6E-06                       

(X_U8.32)    -.0426                   (X_U8.33) 609.6E-06                       

(X_U8.34)    -.0426                   (X_U8.35) 609.6E-06                       

(X_U8.36) 609.6E-06                   (X_U8.40) 609.6E-06                       

(X_U8.41)    -.0394                   (X_U8.42)     .0406                       

(X_U8.45) 609.3E-06                   (X_U8.60)    -.3749                       

(X_U8.61) 609.7E-06                   (X_U8.62) 609.7E-06                       

(X_U8.98) 609.7E-06                   (X_U9.10)    -.7048                       

(X_U9.11)     .7060                   (X_U9.14)    -.0013                       

(X_U9.15) 609.7E-06                   (X_U9.31) 604.8E-06                       

(X_U9.32)   -4.8621                   (X_U9.33) 604.8E-06                       

(X_U9.34)   -4.8621                   (X_U9.35) 604.8E-06                       

(X_U9.36) 604.8E-06                   (X_U9.40) 604.8E-06                       

(X_U9.41)    -.0394                   (X_U9.42)     .0406                       

(X_U9.45) 552.4E-06                   (X_U9.60)    -.5065                       

(X_U9.61) 609.7E-06                   (X_U9.62) 609.7E-06                       

(X_U9.98) 609.7E-06                   (X_U1.DIS)    0.0000                      

(X_U1.DRVA)    0.0000                 (X_U1.DRVB)    0.0000                     

(X_U1.NO_DT)    0.0000                (X_U1.PWMIN)    1.0000                    

(X_U1.UVLO1)    5.0000                (X_U1.UVLO2)    0.0000                    

(X_U1.INA_OK)    5.0000               (X_U1.INB_OK)    0.0000                   

(X_U1.PWMINB)    0.0000               (X_U1.UVLO2B)    5.0000                   

(X_U1.INA_INT)    4.9739              (X_U1.INA_OKD)    5.0000                  

(X_U1.INA_PRE)    5.0000              (X_U1.INB_OKD)    0.0000                  

(X_U1.INB_PRE)    0.0000              (X_U1.VCCI_INT)    5.0000                 

(X_U1.DRVA_PASS)    0.0000            (X_U1.DRVB_PASS)    0.0000                

(X_U1.FAULT_INP)    5.0000            (X_U1.N16668890)    8.5000                

(X_U1.N16668898)    8.5000            (X_U1.N16669068)    0.0000                

(X_U1.N16669308)-663.3E-06            (X_U1.N16669580)    5.0000                

(X_U1.N16669674)    0.0000            (X_U1.N16669834)    2.7000                

(X_U1.N16669842)    2.5000            (X_U1.N16669858)    5.0000                

(X_U1.N16670120) 90.87E-06            (X_U1.N16670154)    2.0000                

(X_U1.N16670162)-22.27E-18            (X_U1.N16670228)    0.0000                

(X_U1.N16670408)    0.0000            (X_U1.N16670672)    1.0000                

(X_U1.N16670780)    -.0013            (X_U1.N16670790)    0.0000                

(X_U1.N16670816)    4.9977            (X_U1.N16670888)    8.5000                

(X_U1.N16670896)    8.0000            (X_U1.N16671044)   12.0000                

(X_U1.N16671166)    0.0000            (X_U1.N16671236)    0.0000                

(X_U1.N16671468)    0.0000            (X_U1.N16671552) 8.020E-15                

(X_U1.N16671580)    2.0000            (X_U1.N16671640)    0.0000                

(X_U1.N16671702)    0.0000            (X_U1.N16671830)    5.0000                

(X_U1.N16671850)    0.0000            (X_U1.N16672106)    1.0000                

(X_U1.N16672276)    1.8000            (X_U1.N16672306)    1.0000                

(X_U1.N16672528)    1.0000            (X_U1.N16672594)    0.0000                

(X_U1.N16672776)  -18.0000            (X_U1.N16672784)  -30.0000                

(X_U1.N16672968)  -30.0000            (X_U1.N16673112)    0.0000                

(X_U1.N16673358)    0.0000            (X_U1.N16673432)    1.8000                

(X_U1.N16673492)    1.8000            (X_U1.N16673790)    0.0000                

(X_U1.N16698404)    5.0000            (X_U1.N16970878)    -.0013                

(X_U1.N17051744)    5.0000            (X_U1.N17051757)    5.0000                

(X_U1.N17051771)  -25.0000            (X_U1.N17088411)-501.3E-06                

(X_U1.N17110019)    5.0000            (X_U1.N17110021)    5.0000                

(X_U1.N17110038)    5.0000            (X_U1.N17127259)-1.365E-06                

(X_U1.N17153666)    5.0000            (X_U1.N17167704)  -30.0000                

(X_U1.N17167706)    5.0000            (X_U1.N17196585)    0.0000                

(X_U1.N17198437)    5.0000            (X_U1.N17201974)    5.0000                

(X_U1.N17396123)-15.66E-21            (X_U1.N17407797)    5.0000                

(X_U1.N167201110)-73.22E-21           (X_U1.N167208610)    5.0000               

(X_U1.N167216030)    5.0000           (X_U1.X_U42.YINT)    0.0000               

(X_U1.X_U43.YINT)    5.0000           (X_U1.X_U44.YINT)    5.0000               

(X_U1.X_U54.YINT)    5.0000           (X_U1.X_U61.YINT)    5.0000               

(X_U1.X_U62.YINT)    5.0000           (X_U1.DEAD_THRESH)     .0023              

(X_U1.UVLO1_DELAYED)    5.0000        (X_U1.UVLO2_DELAYED) 10.77E-18            

(X_U1.UVLO2B_DELAYED)    5.0000       




    VOLTAGE SOURCE CURRENTS
    NAME         CURRENT

    V_V3         1.281E-09
    V_V5        -4.797E-03
    V_V4        -8.008E-09
    V_V6        -3.226E-06
    V_V2         3.870E-06
    V_V1        -1.212E-03
    X_U7.vi1    -1.559E-12
    X_U7.vi2     3.870E-06
    X_U7.v1     -4.958E-12
    X_U1.V_V8   -4.010E-12
    X_U1.V_V1    0.000E+00
    X_U1.V_V10   0.000E+00
    X_U1.V_V11   0.000E+00
    X_U1.V_V6    0.000E+00
    X_U1.V_V12   0.000E+00
    X_U1.V_V13   0.000E+00
    X_U1.V_V2    0.000E+00
    X_U1.V_V14   0.000E+00
    X_U1.V_V9    0.000E+00
    X_U1.V_V7    0.000E+00
    X_U1.V_V3    0.000E+00
    X_U1.V_V5   -4.543E-02
    X_U8.V1     -6.993E-03
    X_U8.V2     -6.993E-03
    X_U8.V7     -3.855E-13
    X_U8.V8      2.017E-08
    X_U8.V5     -4.787E-14
    X_U8.V6     -4.787E-14
    X_U9.V1     -6.992E-03
    X_U9.V2     -6.995E-03
    X_U9.V7     -5.171E-13
    X_U9.V8      3.275E-06
    X_U9.V5     -4.781E-14
    X_U9.V6     -4.793E-14
    X_U1.X_H1.VH_H1   2.272E-03

    TOTAL POWER DISSIPATION   1.81E-01  WATTS

Convergence problem in transient analysis at Time =  1.344E-06
         Time step =  5.009E-15, minimum allowable step size =  11.00E-15

  These voltages failed to converge:

    V(X_M1.22)                =  -564.21uV  \  -633.49uV
    V(X_M1.33)                =    97.77uV  \    28.49uV
    V(X_M1.6)                 =  -564.21uV  \  -633.50uV
    V(X_M2.11)                =    13.36uV  \   -1.281uV
    V(X_M2.5)                 =    13.36uV  \   -1.281uV
    V(X_M2.12)                =    13.36uV  \   -1.281uV

  These supply currents failed to converge:

    I(X_U1.E_E27)             =    17.86mA  \    -9.168A
    I(X_U8.ECM)               =   -80.32nA  \   -80.40nA
    I(X_M1.L1)                =   -4.107nA  \   -3.657nA
    I(X_M1.L2)                =   968.97pA  \    1.179nA
    I(X_M1.L3)                =    84.28pA  \   293.76pA
    I(X_M2.L1)                =  -530.85pA  \  -369.43pA
    I(X_M2.L2)                =  -249.97pA  \  -174.14pA
    I(X_M2.L3)                =   444.05pA  \   519.91pA
    I(V_V3)                   =    4.107nA  \    3.657nA
    I(V_V4)                   =   426.29nA  \  -422.01nA
    I(V_V1)                   =   -1.213mA  \   -1.211mA
    I(X_U1.V_V5)              =   -2.002nA  \   -13.16nA
    I(X_U9.V5)                =    1.443pA  \   -1.024fA

  These devices failed to converge:
    D_D3      D_D4      X_U1.X_U47.d1 X_U1.X_U38.d1 



  Last node voltages tried were:

 NODE   VOLTAGE     NODE   VOLTAGE     NODE   VOLTAGE     NODE   VOLTAGE


(   5V)    5.0000  (   HO)-663.8E-06  (   LO)  -30.0000  (   VO)-1.362E-06      

(   VS)-1.809E-06  (  15V)    1.1315  (  VCC)   30.0000  (  VEE)  -30.0000      

( -15V)   -1.1180  (N32061)    -.0031 (N32247)     .0045 (N32277)     .0093     

(N36123)     .0067 (N36228)     .0035 (N37031)     .1377 (N44046)    -.0013     

(N44064)  -18.0000 (N44156)  -18.0000 (N44236)    0.0000 (N44266)    0.0000     

(N44324)    0.0000 (N44352)    0.0000 (N44408)    4.9977 (N45280)-663.8E-06     

(N45286)-663.8E-06 (N45504)  -30.0000 (N45510)  -30.0000 (PWM_IN)     .1392     

(VERROR)     .0068 (X_M1.4)    2.9360 (X_M1.5)   30.0000 (X_M1.6)-564.2E-06     

(X_M2.4)  -27.0630 (X_M2.5) 13.36E-06 (X_M2.6)  -30.0000 (X_U7.7)    1.1172     

(X_U7.8)    -.5646 (X_U7.9)    -.3559 (X_U8.3)     .0050 (X_U8.4)     .5422     

(X_U8.5)     .5407 (X_U8.6)    -.7526 (X_U8.7)    -.7512 (X_U8.8)   -1.3204     

(X_U8.9)     .0068 (X_U9.3)    -.0026 (X_U9.4)     .5368 (X_U9.5)     .5461     

(X_U9.6)    -.7496 (X_U9.7)    -.7585 (X_U9.8)   -1.3225 (X_U9.9)     .0068     

(VTRIANG)     .1138                   (X_M1.11)   30.0000                       

(X_M1.12)   30.0000                   (X_M1.22)-564.2E-06                       

(X_M1.33) 97.77E-06                   (X_M2.11) 13.36E-06                       

(X_M2.12) 13.36E-06                   (X_M2.22)  -30.0000                       

(X_M2.33)  -30.0000                   (X_U7.10)     .7621                       

(X_U7.11)     .7621                   (X_U7.21)     .4568                       

(X_U7.22)     .5638                   (X_U8.10)    -.6985                       

(X_U8.11)     .7120                   (X_U8.14)     .0040                       

(X_U8.15)     .0068                   (X_U8.31)     .0068                       

(X_U8.32)    2.3217                   (X_U8.33)     .0068                       

(X_U8.34)    2.3354                   (X_U8.35)     .0068                       

(X_U8.36)     .0068                   (X_U8.40)     .0068                       

(X_U8.41)    -.0332                   (X_U8.42)     .0468                       

(X_U8.45)     .0068                   (X_U8.60)     .4171                       

(X_U8.61)     .0068                   (X_U8.62)     .0068                       

(X_U8.98)     .0068                   (X_U9.10)    -.6985                       

(X_U9.11)     .7120                   (X_U9.14)     .0018                       

(X_U9.15)     .0068                   (X_U9.31)     .0068                       

(X_U9.32)  -14.4250                   (X_U9.33)     .0068                       

(X_U9.34)  -14.4340                   (X_U9.35)     .0068                       

(X_U9.36)     .0068                   (X_U9.40)     .0068                       

(X_U9.41)    -.0332                   (X_U9.42)     .0468                       

(X_U9.45)     .0067                   (X_U9.60)    -.5004                       

(X_U9.61)     .0068                   (X_U9.62)     .0068                       

(X_U9.98)     .0068                   (X_U1.DIS)    0.0000                      

(X_U1.DRVA)    0.0000                 (X_U1.DRVB)    0.0000                     

(X_U1.NO_DT)    0.0000                (X_U1.PWMIN)    0.0000                    

(X_U1.UVLO1)    5.0000                (X_U1.UVLO2)    0.0000                    

(X_U1.INA_OK)    2.5003               (X_U1.INB_OK)    2.4997                   

(X_U1.PWMINB)    1.0000               (X_U1.UVLO2B)    5.0000                   

(X_U1.INA_INT)     .1392              (X_U1.INA_OKD)    2.5003                  

(X_U1.INA_PRE)    0.0000              (X_U1.INB_OKD)    2.4997                  

(X_U1.INB_PRE)    5.0000              (X_U1.VCCI_INT)    5.0000                 

(X_U1.DRVA_PASS)    5.0000            (X_U1.DRVB_PASS)    0.0000                

(X_U1.FAULT_INP)    5.0000            (X_U1.N16668890)    8.5000                

(X_U1.N16668898)    8.5000            (X_U1.N16669068)    0.0000                

(X_U1.N16669308)-663.8E-06            (X_U1.N16669580)    2.5003                

(X_U1.N16669674)    0.0000            (X_U1.N16669834)    2.7000                

(X_U1.N16669842)    2.5000            (X_U1.N16669858)    5.0000                

(X_U1.N16670120)    2.0008            (X_U1.N16670154)    2.0000                

(X_U1.N16670162)    2.4988            (X_U1.N16670228)    5.0000                

(X_U1.N16670408)    0.0000            (X_U1.N16670672)    1.0000                

(X_U1.N16670780)    -.0013            (X_U1.N16670790)    0.0000                

(X_U1.N16670816)    4.9977            (X_U1.N16670888)    8.5000                

(X_U1.N16670896)    8.0000            (X_U1.N16671044)   12.0000                

(X_U1.N16671166)    0.0000            (X_U1.N16671236)    0.0000                

(X_U1.N16671468)    5.0000            (X_U1.N16671552) 5.391E-09                

(X_U1.N16671580)    2.0000            (X_U1.N16671640)    0.0000                

(X_U1.N16671702)    0.0000            (X_U1.N16671830)    4.7708                

(X_U1.N16671850)    0.0000            (X_U1.N16672106)    1.0000                

(X_U1.N16672276)    1.8000            (X_U1.N16672306)    1.8000                

(X_U1.N16672528)     .0595            (X_U1.N16672594)    0.0000                

(X_U1.N16672776)  -18.0000            (X_U1.N16672784)  -30.0000                

(X_U1.N16672968)  -30.0000            (X_U1.N16673112)    2.4997                

(X_U1.N16673358)    0.0000            (X_U1.N16673432)    1.8000                

(X_U1.N16673492)    1.8000            (X_U1.N16673790)     .9405                

(X_U1.N16698404)    5.0000            (X_U1.N16970878)    -.0013                

(X_U1.N17051744)    5.0000            (X_U1.N17051757)    5.0000                

(X_U1.N17051771)  -25.0000            (X_U1.N17088411)-501.8E-06                

(X_U1.N17110019)    5.0000            (X_U1.N17110021)    5.0000                

(X_U1.N17110038)    5.0000            (X_U1.N17127259)-1.809E-06                

(X_U1.N17153666)    5.0000            (X_U1.N17167704)  -30.0000                

(X_U1.N17167706)    5.0000            (X_U1.N17196585)    0.0000                

(X_U1.N17198437)    5.0000            (X_U1.N17201974)    5.0000                

(X_U1.N17396123)    2.4988            (X_U1.N17407797)    4.6215                

(X_U1.N167201110) 1.393E-24           (X_U1.N167208610)    5.0000               

(X_U1.N167216030)    5.0000           (X_U1.X_U42.YINT)    0.0000               

(X_U1.X_U43.YINT)    5.0000           (X_U1.X_U44.YINT)    5.0000               

(X_U1.X_U54.YINT)    5.0000           (X_U1.X_U61.YINT)    5.0000               

(X_U1.X_U62.YINT)    5.0000           (X_U1.DEAD_THRESH)     .0023              

(X_U1.UVLO1_DELAYED)    5.0000        (X_U1.UVLO2_DELAYED) 10.57E-18            

(X_U1.UVLO2B_DELAYED)    5.0000       

Resuming Simulation with the following settings
ITL4 = 1000
ABSTOL = 1.26e-010
VNTOL = 4.47e-005


**** 04/04/20 19:40:05 ****** PSpice 17.2.0 (March 2016) ****** ID# 0 ********

 ** Profile: "SCHEMATIC1-1K"  [ C:\Users\emanu\Desktop\DCE-GRUPO10\REALIMENTADOR\PSpice\Realimentador-PSpiceFiles\SCHEMATIC1\1K.sim ]


 ****     FOURIER ANALYSIS                 TEMPERATURE =   27.000 DEG C


******************************************************************************



FOURIER COMPONENTS OF TRANSIENT RESPONSE V(VO)


ERROR(ORPSIM-15084): Can't find start point in FourAn; .FOUR aborted

          JOB ABORTED

**** 04/04/20 19:40:05 ****** PSpice 17.2.0 (March 2016) ****** ID# 0 ********

 ** Profile: "SCHEMATIC1-1K"  [ C:\Users\emanu\Desktop\DCE-GRUPO10\REALIMENTADOR\PSpice\Realimentador-PSpiceFiles\SCHEMATIC1\1K.sim ]


 ****     JOB STATISTICS SUMMARY


******************************************************************************



  Total job time (using Solver 1)   =      139.78
