Circuit: * C:\Users\emanu\Desktop\DCE-GRUPO10\DISTORSION\OTRAS\LAZO CERRADO\Dist_20k_cl.asc

Questionable use of curly braces in "b§e_abmgate yint 0 v={if(v(a)>{{vthresh}},{{vss}},{{vdd}})}"
    Error: undefined symbol in: "if([v](a)>((vthresh)),((vss)),((vdd)))"
Questionable use of curly braces in "b§e_abmgate yint 0 v={if(v(a)>{{vthresh}}&v(b)>{{vthresh}},{{vdd}},{{vss}})}"
    Error: undefined symbol in: "if([v](a)>((vthresh))&v(b)>((vthresh)),((vdd)),((vss)))"
Questionable use of curly braces in "b§e_abmgate yint 0 v={if(v(a)>{{vthresh}}&v(b)>{{vthresh}},{{vdd}},{{vss}})}"
    Error: undefined symbol in: "if([v](a)>((vthresh))&v(b)>((vthresh)),((vdd)),((vss)))"
Questionable use of curly braces in "b§e_abmgate yint 0 v={if(v(a)>{{vthresh}},{{vss}},{{vdd}})}"
    Error: undefined symbol in: "if([v](a)>((vthresh)),((vss)),((vdd)))"
Questionable use of curly braces in "b§e_abmgate yint 0 v={if(v(a)>{{vthresh}}&v(b)>{{vthresh}},{{vdd}},{{vss}})}"
    Error: undefined symbol in: "if([v](a)>((vthresh))&v(b)>((vthresh)),((vdd)),((vss)))"
Questionable use of curly braces in "b§e_abmgate yint 0 v={if(v(a)>{{vthresh}},{{vss}},{{vdd}})}"
    Error: undefined symbol in: "if([v](a)>((vthresh)),((vss)),((vdd)))"
WARNING: Less than two connections to node NC_03.  This node is used by V:U4:_V11.
WARNING: Less than two connections to node NC_02.  This node is used by V:U4:_V12.
WARNING: Less than two connections to node NC_01.  This node is used by V:U4:_V13.
WARNING: Less than two connections to node NC_04.  This node is used by V:U4:_V14.
Instance "m:u4:_m12:1": Length shorter than recommended for a level 1 MOSFET.
Instance "m:u4:_m14:1": Length shorter than recommended for a level 1 MOSFET.
Instance "m:u4:_m15:1": Length shorter than recommended for a level 1 MOSFET.
Instance "m:u4:_m13:1": Length shorter than recommended for a level 1 MOSFET.
Instance "m:m2:2": Length shorter than recommended for a level 3 MOSFET.
Instance "m:m2:1": Length shorter than recommended for a level 3 MOSFET.
Instance "m:m1:2": Length shorter than recommended for a level 3 MOSFET.
Instance "m:m1:1": Length shorter than recommended for a level 3 MOSFET.
Per .tran options, skipping operating point for transient analysis.
Ignoring empty pin current: Ix(u4:vcci_1)
Changing Tseed to 1e-10
Changing Tseed to 1e-12
Changing Tseed to 1e-09
Changing Tseed to 1e-13
Changing Tseed to 1e-08
Changing Tseed to 1e-14
Changing Tseed to 1e-07
Changing Tseed to 1e-15
Changing Tseed to 1e-06
Changing Tseed to 1e-16
Changing Tseed to 1e-05
Changing Tseed to 1e-17
Heightened Def Con from 0 Changing Tseed to 1e-09
Changing Tseed to 1e-11
Changing Tseed to 1e-08
Changing Tseed to 1e-12
Changing Tseed to 1e-07
Changing Tseed to 1e-13
Changing Tseed to 1e-06
Changing Tseed to 1e-14
Changing Tseed to 1e-05
Changing Tseed to 1e-15
Changing Tseed to 0.0001
Changing Tseed to 1e-16
+Changing Tseed to 1e-09
Changing Tseed to 1e-11
Changing Tseed to 1e-08
Changing Tseed to 1e-12
Changing Tseed to 1e-07
Changing Tseed to 1e-13
Changing Tseed to 1e-06
Changing Tseed to 1e-14
Changing Tseed to 1e-05
Changing Tseed to 1e-15
Changing Tseed to 0.0001
Changing Tseed to 1e-16
+Changing Tseed to 1e-09
Changing Tseed to 1e-11
Changing Tseed to 1e-08
Changing Tseed to 1e-12
Changing Tseed to 1e-07
Changing Tseed to 1e-13
Changing Tseed to 1e-06
Changing Tseed to 1e-14
Changing Tseed to 1e-05
Changing Tseed to 1e-15
Changing Tseed to 0.0001
Changing Tseed to 1e-16
+Changing Tseed to 1e-09
Changing Tseed to 1e-11
Changing Tseed to 1e-08
Changing Tseed to 1e-12
Changing Tseed to 1e-07
Changing Tseed to 1e-13
Changing Tseed to 1e-06
Changing Tseed to 1e-14
Changing Tseed to 1e-05
Changing Tseed to 1e-15
Changing Tseed to 0.0001
Changing Tseed to 1e-16
+Changing Tseed to 1e-09
Changing Tseed to 1e-11
Changing Tseed to 1e-08
Changing Tseed to 1e-12
Changing Tseed to 1e-07
Changing Tseed to 1e-13
Changing Tseed to 1e-06
Changing Tseed to 1e-14
Changing Tseed to 1e-05
Changing Tseed to 1e-15
Changing Tseed to 0.0001
Changing Tseed to 1e-16
+Changing Tseed to 1e-09
Changing Tseed to 1e-11
Changing Tseed to 1e-08
Changing Tseed to 1e-12
Changing Tseed to 1e-07
Changing Tseed to 1e-13
Changing Tseed to 1e-06
Changing Tseed to 1e-14
Changing Tseed to 1e-05
Changing Tseed to 1e-15
Changing Tseed to 0.0001
Changing Tseed to 1e-16
+Changing Tseed to 1e-09
Changing Tseed to 1e-11
Changing Tseed to 1e-08
Changing Tseed to 1e-12
Changing Tseed to 1e-07
Changing Tseed to 1e-13
Changing Tseed to 1e-06
Changing Tseed to 1e-14
Changing Tseed to 1e-05
Changing Tseed to 1e-15
Changing Tseed to 0.0001
Changing Tseed to 1e-16
+Changing Tseed to 1e-09
Changing Tseed to 1e-11
Changing Tseed to 1e-08
Changing Tseed to 1e-12
Changing Tseed to 1e-07
Changing Tseed to 1e-13
Changing Tseed to 1e-06
Changing Tseed to 1e-14
Changing Tseed to 1e-05
Changing Tseed to 1e-15
Changing Tseed to 0.0001
Changing Tseed to 1e-16
+Changing Tseed to 1e-09
Changing Tseed to 1e-11
Changing Tseed to 1e-08
Changing Tseed to 1e-12
Changing Tseed to 1e-07
Changing Tseed to 1e-13
Changing Tseed to 1e-06
Changing Tseed to 1e-14
Changing Tseed to 1e-05
Changing Tseed to 1e-15
Changing Tseed to 0.0001
Changing Tseed to 1e-16
+Changing Tseed to 1e-09
Changing Tseed to 1e-11
Changing Tseed to 1e-08
Changing Tseed to 1e-12
Changing Tseed to 1e-07
Changing Tseed to 1e-13
Changing Tseed to 1e-06
Changing Tseed to 1e-14
Changing Tseed to 1e-05
Changing Tseed to 1e-15
Changing Tseed to 0.0001
Changing Tseed to 1e-16
+Changing Tseed to 1e-09
Changing Tseed to 1e-11
Changing Tseed to 1e-08
Changing Tseed to 1e-12
Changing Tseed to 1e-07
Changing Tseed to 1e-13
Changing Tseed to 1e-06
Changing Tseed to 1e-14
Changing Tseed to 1e-05
Changing Tseed to 1e-15
Changing Tseed to 0.0001
Changing Tseed to 1e-16
+Changing Tseed to 1e-09
Changing Tseed to 1e-11
Changing Tseed to 1e-08
Changing Tseed to 1e-12
Changing Tseed to 1e-07
Changing Tseed to 1e-13
Changing Tseed to 1e-06
Changing Tseed to 1e-14
Changing Tseed to 1e-05
Changing Tseed to 1e-15
Changing Tseed to 0.0001
Changing Tseed to 1e-16
+Changing Tseed to 1e-09
Changing Tseed to 1e-11
Changing Tseed to 1e-08
Changing Tseed to 1e-12
Changing Tseed to 1e-07
Changing Tseed to 1e-13
Changing Tseed to 1e-06
Changing Tseed to 1e-14
Changing Tseed to 1e-05
Changing Tseed to 1e-15
Changing Tseed to 0.0001
Changing Tseed to 1e-16
+Changing Tseed to 1e-09
Changing Tseed to 1e-11
Changing Tseed to 1e-08
Changing Tseed to 1e-12
Changing Tseed to 1e-07
Changing Tseed to 1e-13
Changing Tseed to 1e-06
Changing Tseed to 1e-14
Changing Tseed to 1e-05
Changing Tseed to 1e-15
Changing Tseed to 0.0001
Changing Tseed to 1e-16
+Changing Tseed to 1e-09
Changing Tseed to 1e-11
Changing Tseed to 1e-08
Changing Tseed to 1e-12
Changing Tseed to 1e-07
Changing Tseed to 1e-13
Changing Tseed to 1e-06
Changing Tseed to 1e-14
Changing Tseed to 1e-05
Changing Tseed to 1e-15
Changing Tseed to 0.0001
Changing Tseed to 1e-16
+Changing Tseed to 1e-09
Changing Tseed to 1e-11
Changing Tseed to 1e-08
Changing Tseed to 1e-12
Changing Tseed to 1e-07
Changing Tseed to 1e-13
Changing Tseed to 1e-06
Changing Tseed to 1e-14
Changing Tseed to 1e-05
Changing Tseed to 1e-15
Changing Tseed to 0.0001
Changing Tseed to 1e-16
+Changing Tseed to 1e-09
Changing Tseed to 1e-11
Changing Tseed to 1e-08
Changing Tseed to 1e-12
Changing Tseed to 1e-07
Changing Tseed to 1e-13
Changing Tseed to 1e-06
Changing Tseed to 1e-14
Changing Tseed to 1e-05
Changing Tseed to 1e-15
Changing Tseed to 0.0001
Changing Tseed to 1e-16
+Changing Tseed to 1e-09
Changing Tseed to 1e-11
Changing Tseed to 1e-08
Changing Tseed to 1e-12
Changing Tseed to 1e-07
Changing Tseed to 1e-13
Changing Tseed to 1e-06
Changing Tseed to 1e-14
Changing Tseed to 1e-05
Changing Tseed to 1e-15
Changing Tseed to 0.0001
Changing Tseed to 1e-16
+Changing Tseed to 1e-09
Changing Tseed to 1e-11
Changing Tseed to 1e-08
Changing Tseed to 1e-12
Changing Tseed to 1e-07
Changing Tseed to 1e-13
Changing Tseed to 1e-06
Changing Tseed to 1e-14
Changing Tseed to 1e-05
Changing Tseed to 1e-15
Changing Tseed to 0.0001
Changing Tseed to 1e-16
+Changing Tseed to 1e-09
Changing Tseed to 1e-11
Changing Tseed to 1e-08
Changing Tseed to 1e-12
Changing Tseed to 1e-07
Changing Tseed to 1e-13
Changing Tseed to 1e-06
Changing Tseed to 1e-14
Changing Tseed to 1e-05
Changing Tseed to 1e-15
Changing Tseed to 0.0001
Changing Tseed to 1e-16
+Changing Tseed to 1e-09
Changing Tseed to 1e-11
Changing Tseed to 1e-08
Changing Tseed to 1e-12
Changing Tseed to 1e-07
Changing Tseed to 1e-13
Changing Tseed to 1e-06
Changing Tseed to 1e-14
Changing Tseed to 1e-05
Changing Tseed to 1e-15
Changing Tseed to 0.0001
Changing Tseed to 1e-16
+Changing Tseed to 1e-09
Changing Tseed to 1e-11
Changing Tseed to 1e-08
Changing Tseed to 1e-12
Changing Tseed to 1e-07
Changing Tseed to 1e-13
Changing Tseed to 1e-06
Changing Tseed to 1e-14
Changing Tseed to 1e-05
Changing Tseed to 1e-15
Changing Tseed to 0.0001
Changing Tseed to 1e-16
+Changing Tseed to 1e-09
Changing Tseed to 1e-11
Changing Tseed to 1e-08
Changing Tseed to 1e-12
Changing Tseed to 1e-07
Changing Tseed to 1e-13
Changing Tseed to 1e-06
Changing Tseed to 1e-14
Changing Tseed to 1e-05
Changing Tseed to 1e-15
Changing Tseed to 0.0001
Changing Tseed to 1e-16
+Changing Tseed to 1e-09
Changing Tseed to 1e-11
Changing Tseed to 1e-08
Changing Tseed to 1e-12
Changing Tseed to 1e-07
Changing Tseed to 1e-13
Changing Tseed to 1e-06
Changing Tseed to 1e-14
Changing Tseed to 1e-05
Changing Tseed to 1e-15
Changing Tseed to 0.0001
Changing Tseed to 1e-16
+Changing Tseed to 1e-09
Changing Tseed to 1e-11
Changing Tseed to 1e-08
Changing Tseed to 1e-12
Changing Tseed to 1e-07
Changing Tseed to 1e-13
Changing Tseed to 1e-06
Changing Tseed to 1e-14
Changing Tseed to 1e-05
Changing Tseed to 1e-15
Changing Tseed to 0.0001
Changing Tseed to 1e-16
+Changing Tseed to 1e-09
Changing Tseed to 1e-11
Changing Tseed to 1e-08
Changing Tseed to 1e-12
to 1.125e-12
Heightened Def Con from 0.000501543 to 0.000501543
Heightened Def Con from 0.00050269 to 0.000502691
Heightened Def Con from 0.000504855 to 0.000504855
Heightened Def Con from 0.000505155 to 0.000505173
Heightened Def Con from 0.00050568 to 0.00050568
Heightened Def Con from 0.000507032 to 0.000507032
Heightened Def Con from 0.000507718 to 0.000507738
Heightened Def Con from 0.000508676 to 0.000508676
Heightened Def Con from 0.000509818 to 0.000509818
Heightened Def Con from 0.00051031 to 0.000510326
Heightened Def Con from 0.000510949 to 0.000510949
Heightened Def Con from 0.00051257 to 0.00051257
Heightened Def Con from 0.000513425 to 0.00051344
Heightened Def Con from 0.000514318 to 0.000514319
Heightened Def Con from 0.00051571 to 0.00051571
Heightened Def Con from 0.000517534 to 0.000517534
Heightened Def Con from 0.000518538 to 0.000518553
Heightened Def Con from 0.000519436 to 0.000519436
Heightened Def Con from 0.000520412 to 0.000520427
Heightened Def Con from 0.000521043 to 0.000521043
Heightened Def Con from 0.000521167 to 0.000521167
Heightened Def Con from 0.000522131 to 0.000522131
Heightened Def Con from 0.000523263 to 0.000523265
Heightened Def Con from 0.00052329 to 0.00052329
Heightened Def Con from 0.000525085 to 0.000525085
Heightened Def Con from 0.000525248 to 0.000525248
Heightened Def Con from 0.000525274 to 0.000525274
Heightened Def Con from 0.000525936 to 0.000525937
Heightened Def Con from 0.000528204 to 0.000528204
Heightened Def Con from 0.000528214 to 0.000528224
Heightened Def Con from 0.000530185 to 0.000530185
Heightened Def Con from 0.000530195 to 0.000530196
Heightened Def Con from 0.000530829 to 0.000530829
Heightened Def Con from 0.000532274 to 0.000532284
Heightened Def Con from 0.000533211 to 0.000533211
Heightened Def Con from 0.000533221 to 0.000533223
Heightened Def Con from 0.000535183 to 0.000535183
Heightened Def Con from 0.000535193 to 0.000535205
Heightened Def Con from 0.000535814 to 0.000535815
Heightened Def Con from 0.000538342 to 0.000538342
Heightened Def Con from 0.000538419 to 0.000538419
Heightened Def Con from 0.000538429 to 0.000538441
Heightened Def Con from 0.000538791 to 0.000538799
Heightened Def Con from 0.000539325 to 0.000539325
Heightened Def Con from 0.000540973 to 0.000540983
Heightened Def Con from 0.000541731 to 0.000541731
Heightened Def Con from 0.000541759 to 0.000541759
Heightened Def Con from 0.000541769 to 0.000541777
Heightened Def Con from 0.000543809 to 0.000543809
Heightened Def Con from 0.000543819 to 0.000543826
Heightened Def Con from 0.000544113 to 0.00054413
Heightened Def Con from 0.000544613 to 0.000544613
Heightened Def Con from 0.000546329 to 0.000546329
Heightened Def Con from 0.000546452 to 0.000546462
Heightened Def Con from 0.000547237 to 0.000547237
Heightened Def Con from 0.000547247 to 0.000547255
Heightened Def Con from 0.000548205 to 0.000548205
Heightened Def Con from 0.000549179 to 0.000549179
Heightened Def Con from 0.000549189 to 0.000549194
Heightened Def Con from 0.000549441 to 0.000549457
Heightened Def Con from 0.000549882 to 0.000549883
Heightened Def Con from 0.000549911 to 0.000549911
Heightened Def Con from 0.000552667 to 0.000552667
Heightened Def Con from 0.000552677 to 0.000552686
Heightened Def Con from 0.000553778 to 0.000553793
Heightened Def Con from 0.000554518 to 0.000554519
Heightened Def Con from 0.000554545 to 0.000554545
Heightened Def Con from 0.000554555 to 0.000554563
Heightened Def Con from 0.000554773 to 0.000554788
Heightened Def Con from 0.000555214 to 0.000555215
Heightened Def Con from 0.000555224 to 0.000555234
Heightened Def Con from 0.000557269 to 0.000557288
Heightened Def Con from 0.00055806 to 0.00055806
Heightened Def Con from 0.00055806 to 0.00055806
Heightened Def Con from 0.00055806 to 0.00055806
Heightened Def Con from 0.00055806 to 0.00055806
Heightened Def Con from 0.00055806 to 0.00055806
Heightened Def Con from 0.000558115 to 0.000558115
Heightened Def Con from 0.000558125 to 0.000558134
Heightened Def Con from 0.000558549 to 0.000558564
Heightened Def Con from 0.000559057 to 0.000559058
Heightened Def Con from 0.000560751 ++++++++++++++++++++to 0.000560752
Heightened Def Con from 0.000560817 to 0.000560836
Heightened Def Con from 0.000561521 to 0.000561522
Heightened Def Con from 0.000561531 to 0.000561539
Heightened Def Con from 0.000561951 to 0.000561968
Heightened Def Con from 0.000562043 to 0.000562043
Heightened Def Con from 0.000562053 to 0.000562061
Heightened Def Con from 0.000562333 to 0.000562333
Heightened Def Con from 0.000562359 to 0.000562359
Heightened Def Con from 0.000562369 to 0.000562378
Heightened Def Con from 0.000564427 to 0.000564427
Heightened Def Con from 0.000564586 to 0.000564586
Heightened Def Con from 0.000564596 to 0.000564605
Heightened Def Con from 0.000564789 to 0.000564802
Heightened Def Con from 0.000565223 to 0.000565223
Heightened Def Con from 0.000565233 to 0.000565245
Heightened Def Con from 0.000567216 to 0.000567216
Heightened Def Con from 0.000567418 to 0.000567433
Heightened Def Con from 0.000568255 to 0.000568255
Heightened Def Con from 0.000568265 to 0.000568275
Heightened Def Con from 0.000568592 to 0.000568607
Heightened Def Con from 0.000569077 to 0.000569079
Heightened Def Con from 0.000569104 to 0.000569104
Heightened Def Con from 0.000569113 to 0.000569125
Heightened Def Con from 0.000571149 to 0.000571164
Heightened Def Con from 0.000571815 to 0.000571815
Heightened Def Con from 0.000571816 to 0.000571816
Heightened Def Con from 0.000571842 to 0.000571842
Heightened Def Con from 0.000573923 to 0.000573924
Heightened Def Con from 0.000573933 to 0.000573944
Heightened Def Con from 0.000574642 to 0.000574642
Heightened Def Con from 0.000576971 to 0.000576981
Heightened Def Con from 0.000577666 to 0.000577666
Heightened Def Con from 0.000577671 to 0.000577671
Heightened Def Con from 0.000577694 to 0.000577694
Heightened Def Con from 0.000577703 to 0.000577712
Heightened Def Con from 0.000578951 to 0.000578966
Heightened Def Con from 0.000579653 to 0.000579653
Heightened Def Con from 0.000579663 to 0.000579672
Heightened Def Con from 0.000580237 to 0.000580244
Heightened Def Con from 0.000580264 to 0.000580264
Heightened Def Con from 0.000580274 to 0.000580281
Heightened Def Con from 0.000582685 to 0.000582704
Heightened Def Con from 0.000583414 to 0.000583414
Heightened Def Con from 0.000583414 to 0.000583414
Heightened Def Con from 0.000583498 to 0.000583498
Heightened Def Con from 0.000583508 to 0.000583517
Heightened Def Con from 0.00058377 to 0.000583785
Heightened Def Con from 0.000584274 to 0.000584274
Heightened Def Con from 0.000584284 to 0.000584289
Heightened Def Con from 0.000586838 to 0.000586839
Heightened Def Con from 0.000587328 to 0.000587328
Heightened Def Con from 0.00058735 to 0.000587353
Heightened Def Con from 0.000587355 to 0.000587355
Heightened Def Con from 0.000587365 to 0.000587376
Heightened Def Con from 0.000588653 to 0.000588654
Heightened Def Con from 0.000589334 to 0.00058934
Heightened Def Con from 0.000589341 to 0.000589341
Heightened Def Con from 0.000589351 to 0.000589358
Heightened Def Con from 0.000589548 to 0.000589548
Heightened Def Con from 0.000589551 to 0.00058957
Heightened Def Con from 0.000589958 to 0.000589961
Heightened Def Con from 0.000589986 to 0.000589986
Heightened Def Con from 0.000589996 to 0.00059
Heightened Def Con from 0.00059251 to 0.00059251
Heightened Def Con from 0.000593254 to 0.000593254
Heightened Def Con from 0.000593276 to 0.000593279
Heightened Def Con from 0.000593281 to 0.000593281
Heightened Def Con from 0.000593291 to 0.000593302
Heightened Def Con from 0.00059358 to 0.00059358
Heightened Def Con from 0.000593581 to 0.000593602
Heightened Def Con from 0.000594083 to 0.000594083
Heightened Def Con from 0.000594094 to 0.000594105
Heightened Def Con from 0.000596529 to 0.000596529
Heightened Def Con from 0.000597124 to 0.000597124
Heightened Def Con from 0.00059714 to 0.00059714
Heightened Def Con from 0.000597161 to 0.000597167
Heightened Def Con from 0.000597168 to 0.000597168
Heightened Def Con from 0.000597179 to 0.000597187
Heightened Def Con from 0.000598557 to 0.000598557
Heightened Def Con from 0.000599218 to 0.000599224
Heightened Def Con from 0.000599225 to 0.000599225
Heightened Def Con from 0.000599235 to 0.000599246
Heightened Def Con from 0.00059944 to 0.00059944
Heightened Def Con from 0.000599845 to 0.000599868
Heightened Def Con from 0.000599871 to 0.000599872
Heightened Def Con from 0.000599882 to 0.000599884
Heightened Def Con from 0.000602526 to 0.000602527
Heightened Def Con from 0.000602529 to 0.000602529
Heightened Def Con from 0.000603238 to 0.00060326
Heightened Def Con from 0.000603264 to 0.000603264
Heightened Def Con from 0.000603274 to 0.000603283
Heightened Def Con from 0.000603565 to 0.000603566
Heightened Def Con from 0.000604054 to 0.000604054
Heightened Def Con from 0.000604065 to 0.000604076
Heightened Def Con from 0.000606634 to 0.000606634
Heightened Def Con from 0.000607213 to 0.000607213
Heightened Def Con from 0.000607245 to 0.00060725
Heightened Def Con from 0.000607251 to 0.000607252
Heightened Def Con from 0.000607262 to 0.000607273
Heightened Def Con from 0.000608698 to 0.000608698
Heightened Def Con from 0.000609197 to 0.000609197
Heightened Def Con from 0.000609332 to 0.000609338
Heightened Def Con from 0.000609339 to 0.000609339
Heightened Def Con from 0.00060935 to 0.000609357
Heightened Def Con from 0.000609546 to 0.000609547
Heightened Def Con from 0.000609949 to 0.000609956
Heightened Def Con from 0.000609957 to 0.000609957
Heightened Def Con from 0.000609968 to 0.000609979
Heightened Def Con from 0.000612754 to 0.000612754
Heightened Def Con from 0.000613468 to 0.000613473
Heightened Def Con from 0.000613475 to 0.000613475
Heightened Def Con from 0.000613485 to 0.000613496
Heightened Def Con from 0.000613736 to 0.000613737
Heightened Def Con from 0.000613737 to 0.000613737
Heightened Def Con from 0.000614192 to 0.000614194
Heightened Def Con from 0.000614219 to 0.000614219
Heightened Def Con from 0.00061423 to 0.000614241
Heightened Def Con from 0.000617062 to 0.000617064
Heightened Def Con from 0.000617065 to 0.000617065
Heightened Def Con from 0.000617656 to 0.000617656
Heightened Def Con from 0.00061768 to 0.000617683
Heightened Def Con from 0.000617684 to 0.000617684
Heightened Def Con from 0.000617695 to 0.000617704
Heightened Def Con from 0.00061916 to 0.00061916
Heightened Def Con from 0.000619733 to 0.000619733
Heightened Def Con from 0.000619755 to 0.000619761
Heightened Def Con from 0.000619762 to 0.000619762
Heightened Def Con from 0.000619772 to 0.000619783
Heightened Def Con from 0.00061994 to 0.00061994
Heightened Def Con from 0.00061994 to 0.00061994
Heightened Def Con from 0.000620304 to 0.00062031
Heightened Def Con from 0.000620311 to 0.000620312
Heightened Def Con from 0.000620321 to 0.000620332
Heightened Def Con from 0.000623172 to 0.000623172
Heightened Def Con from 0.000623848 to 0.000623848
Heightened Def Con from 0.000623859 to 0.000623868
Heightened Def Con from 0.00062408 to 0.00062408
Heightened Def Con from 0.00062408 to 0.00062408
Heightened Def Con from 0.000624081 to 0.000624081
Heightened Def Con from 0.000624527 to 0.000624528
Heightened Def Con from 0.000624537 to 0.000624544
Heightened Def Con from 0.000627534 to 0.000627536
Heightened Def Con from 0.000627536 to 0.000627537
Heightened Def Con from 0.000628203 to 0.000628209
Heightened Def Con from 0.00062821 to 0.00062821
Heightened Def Con from 0.000628221 to 0.00062823
Heightened Def Con from 0.000628499 to 0.000628499
Heightened Def Con from 0.000628501 to 0.000628501
Heightened Def Con from 0.000628947 to 0.000628947
Heightened Def Con from 0.000628968 to 0.000628973
Heightened Def Con from 0.000628974 to 0.000628974
Heightened Def Con from 0.000628984 to 0.000628995
Heightened Def Con from 0.000631987 to 0.000631988
Heightened Def Con from 0.000632532 to 0.000632532
Heightened Def Con from 0.000632559 to 0.000632559
Heightened Def Con from 0.00063257 to 0.000632577
Heightened Def Con from 0.000633096 to 0.0006331
Heightened Def Con from 0.000633101 to 0.000633101
Heightened Def Con from 0.000633462 to 0.000633484
Heightened Def Con from 0.000633488 to 0.000633488
Heightened Def Con from 0.000633498 to 0.000633509
Heightened Def Con from 0.000635816 to 0.000635818
Heightened Def Con from 0.000635819 to 0.000635819
Heightened Def Con from 0.000636319 to 0.000636325
Heightened Def Con from 0.000636326 to 0.000636326
Heightened Def Con from 0.000636337 to 0.000636344
Heightened Def Con from 0.000636631 to 0.000636631
Heightened Def Con from 0.000636954 to 0.00063696
Heightened Def Con from 0.000636961 to 0.000636962
Heightened Def Con from 0.000636971 to 0.000636982
Heightened Def Con from 0.000639422 to 0.000639422
Heightened Def Con from 0.000639462 to 0.000639462
Heightened Def Con from 0.000640056 to 0.000640056
Heightened Def Con from 0.000640067 to 0.000640075
Heightened Def Con from 0.00064021 to 0.000640212
Heightened Def Con from 0.000640213 to 0.000640213
Heightened Def Con from 0.00064054 to 0.000640543
Heightened Def Con from 0.000640544 to 0.000640544
Heightened Def Con from 0.000640555 to 0.000640563
Heightened Def Con from 0.000643565 to 0.000643565
Heightened Def Con from 0.00064416 to 0.00064416
Heightened Def Con from 0.000644179 to 0.000644187
Heightened Def Con from 0.000644188 to 0.000644188
Heightened Def Con from 0.000644198 to 0.000644208
Heightened Def Con from 0.000644395 to 0.000644395
Heightened Def Con from 0.000644795 to 0.000644798
Heightened Def Con from 0.0006448 to 0.000644801
Heightened Def Con from 0.00064481 to 0.000644818
Heightened Def Con from 0.000647848 to 0.000647848
Heightened Def Con from 0.000647848 to 0.000647848
Heightened Def Con from 0.000648053 to 0.000648055
Heightened Def Con from 0.000648056 to 0.000648056
Heightened Def Con from 0.000648663 to 0.000648665
Heightened Def Con from 0.000648683 to 0.000648688
Heightened Def Con from 0.000648689 to 0.000648689
Heightened Def Con from 0.0006487 to 0.000648707
Heightened Def Con from 0.000648926 to 0.000648927
Heightened Def Con from 0.000648928 to 0.000648929
Heightened Def Con from 0.000649364 to 0.000649367
Heightened Def Con from 0.000649368 to 0.000649368
Heightened Def Con from 0.000649378 to 0.000649387
Heightened Def Con from 0.00065279 to 0.00065279
Heightened Def Con from 0.000653343 to 0.000653343
Heightened Def Con from 0.000653343 to 0.000653343
Heightened Def Con from 0.000653343 to 0.000653343
Heightened Def Con from 0.000653395 to 0.000653397
Heightened Def Con from 0.000653421 to 0.000653421
Heightened Def Con from 0.000653432 to 0.000653439
Heightened Def Con from 0.000653675 to 0.000653676
Heightened Def Con from 0.000653677 to 0.000653678
Heightened Def Con from 0.000654132 to 0.000654133
Heightened Def Con from 0.000654143 to 0.000654151
Heightened Def Con from 0.000657669 to 0.000657669
Heightened Def Con from 0.000658285 to 0.00065829
Heightened Def Con from 0.000658292 to 0.000658293
Heightened Def Con from 0.000658303 to 0.000658312
Heightened Def Con from 0.00065856 to 0.000658561
Heightened Def Con from 0.000658562 to 0.000658563
Heightened Def Con from 0.000659018 to 0.000659018
Heightened Def Con from 0.000659029 to 0.000659036
Heightened Def Con from 0.000662633 to 0.000662633
Heightened Def Con from 0.000663221 to 0.000663221
Heightened Def Con from 0.00066324 to 0.000663248
Heightened Def Con from 0.000663249 to 0.000663249
Heightened Def Con from 0.000663259 to 0.000663267
Heightened Def Con from 0.000663509 to 0.00066351
Heightened Def Con from 0.000663512 to 0.000663513
Heightened Def Con from 0.00066397 to 0.000663976
Heightened Def Con from 0.000663977 to 0.000663977
Heightened Def Con from 0.000663988 to 0.000663995
Heightened Def Con from 0.000667702 to 0.000667702
Heightened Def Con from 0.000668307 to 0.000668307
Heightened Def Con from 0.000668317 to 0.000668324
Heightened Def Con from 0.000668567 to 0.000668569
Heightened Def Con from 0.00066857 to 0.00066857
Heightened Def Con from 0.000669016 to 0.000669022
Heightened Def Con from 0.000669023 to 0.000669023
Heightened Def Con from 0.000669034 to 0.000669045
Heightened Def Con from 0.000672787 to 0.000672788
Heightened Def Con from 0.000673308 to 0.000673308
Heightened Def Con from 0.000673376 to 0.000673381
Heightened Def Con from 0.000673383 to 0.000673383
Heightened Def Con from 0.000673393 to 0.0006734
Heightened Def Con from 0.000673637 to 0.000673638
Heightened Def Con from 0.000673639 to 0.00067364
Heightened Def Con from 0.000674081 to 0.000674087
Heightened Def Con from 0.000674087 to 0.000674087
Heightened Def Con from 0.000674098 to 0.000674109
Heightened Def Con from 0.000677917 to 0.000677917
Heightened Def Con from 0.00067842 to 0.00067842
Heightened Def Con from 0.000678477 to 0.000678477
Heightened Def Con from 0.000678499 to 0.000678502
Heightened Def Con from 0.000678504 to 0.000678504
Heightened Def Con from 0.000678514 to 0.000678521
Heightened Def Con from 0.000678745 to 0.000678746
Heightened Def Con from 0.000678748 to 0.000678748
Heightened Def Con from 0.000679181 to 0.000679186
Heightened Def Con from 0.000679188 to 0.000679189
Heightened Def Con from 0.000679199 to 0.000679208
Heightened Def Con from 0.00068307 to 0.000683072
Heightened Def Con from 0.000683074 to 0.000683074
Heightened Def Con from 0.000683558 to 0.000683558
Heightened Def Con from 0.000683558 to 0.000683558
Heightened Def Con from 0.000683558 +to 0.000683558
Heightened Def Con from 0.000683558 to 0.000683558
Heightened Def Con from 0.000683558 to 0.000683558
Heightened Def Con from 0.000683651 to 0.000683651
Heightened Def Con from 0.000683662 to 0.000683669
Heightened Def Con from 0.000683884 to 0.000683884
Heightened Def Con from 0.000684312 to 0.000684313
Heightened Def Con from 0.000684323 to 0.000684332
Heightened Def Con from 0.000688223 to 0.000688225
Heightened Def Con from 0.000688226 to 0.000688227
Heightened Def Con from 0.00068879 to 0.00068879
Heightened Def Con from 0.0006888 to 0.000688808
Heightened Def Con from 0.000689022 to 0.000689022
Heightened Def Con from 0.000689423 to 0.00068943
Heightened Def Con from 0.000689431 to 0.000689432
Heightened Def Con from 0.000689442 to 0.00068945
Heightened Def Con from 0.000693359 to 0.000693359
Heightened Def Con from 0.000693887 to 0.000693889
Heightened Def Con from 0.000693907 to 0.000693913
Heightened Def Con from 0.000693914 to 0.000693915
Heightened Def Con from 0.000693925 to 0.000693933
Heightened Def Con from 0.000694135 to 0.000694135
Heightened Def Con from 0.000694528 to 0.000694536
Heightened Def Con from 0.000694537 to 0.000694537
Heightened Def Con from 0.000694548 to 0.000694558
Heightened Def Con from 0.000698504 to 0.000698504
Heightened Def Con from 0.000699027 to 0.000699029
Heightened Def Con from 0.000699047 to 0.000699052
Heightened Def Con from 0.000699054 to 0.000699054
Heightened Def Con from 0.000699064 to 0.000699071
Heightened Def Con from 0.000699262 to 0.000699263
Heightened Def Con from 0.000699265 to 0.000699265
Heightened Def Con from 0.00069963 to 0.000699653
Heightened Def Con from 0.000699655 to 0.000699655
Heightened Def Con from 0.000699666 to 0.000699674
Heightened Def Con from 0.000703644 to 0.000703644
Heightened Def Con from 0.000704162 to 0.000704162
Heightened Def Con from 0.000704162 to 0.000704162
Heightened Def Con from 0.000704181 to 0.000704187
Heightened Def Con from 0.000704188 to 0.000704188
Heightened Def Con from 0.000704198 to 0.000704205
Heightened Def Con from 0.000704394 to 0.000704394
Heightened Def Con from 0.000704764 to 0.000704772
Heightened Def Con from 0.000704773 to 0.000704773
Heightened Def Con from 0.000704784 to 0.000704793
Heightened Def Con from 0.000708776 to 0.000708778
Heightened Def Con from 0.000708779 to 0.000708779
Heightened Def Con from 0.000709313 to 0.000709316
Heightened Def Con from 0.000709318 to 0.000709318
Heightened Def Con from 0.000709328 to 0.000709335
Heightened Def Con from 0.00070951 to 0.000709512
Heightened Def Con from 0.000709513 to 0.000709513
Heightened Def Con from 0.000709876 to 0.000709882
Heightened Def Con from 0.000709883 to 0.000709883
Heightened Def Con from 0.000709894 to 0.000709901
Heightened Def Con from 0.000713899 to 0.000713901
Heightened Def Con from 0.000713902 to 0.000713903
Heightened Def Con from 0.000714403 to 0.000714405
Heightened Def Con from 0.000714422 to 0.000714428
Heightened Def Con from 0.000714429 to 0.000714429
Heightened Def Con from 0.00071444 to 0.000714448
Heightened Def Con from 0.00071462 to 0.000714621
Heightened Def Con from 0.000714968 to 0.000714975
Heightened Def Con from 0.000714976 to 0.000714976
Heightened Def Con from 0.000714987 to 0.000714994
Heightened Def Con from 0.000718975 to 0.000718977
Heightened Def Con from 0.000718978 to 0.000718979
Heightened Def Con from 0.000719472 to 0.000719472
Heightened Def Con from 0.000719493 to 0.000719499
Heightened Def Con from 0.0007195 to 0.0007195
Heightened Def Con from 0.000719511 to 0.000719518
Heightened Def Con from 0.000719687 to 0.000719688
Heightened Def Con from 0.000720029 to 0.000720033
Heightened Def Con from 0.000720035 to 0.000720035
Heightened Def Con from 0.000720046 to 0.000720053
Heightened Def Con from 0.000724059 to 0.000724059
Heightened Def Con from 0.000724412 to 0.000724412
Heightened Def Con from 0.000724412 to 0.000724412
Heightened Def Con from 0.000724551 to 0.000724551
Heightened Def Con from 0.000724571 to 0.000724576
Heightened Def Con from 0.000724577 to 0.000724578
Heightened Def Con from 0.00072476 to 0.00072476
Heightened Def Con from 0.000725101 to 0.000725101
Heightened Def Con from 0.000725112 to 0.000725119
Heightened Def Con from 0.000729127 to 0.000729127
Heightened Def Con from 0.000729617 to 0.000729617
Heightened Def Con from 0.000729618 to 0.00072964
Heightened Def Con from 0.000729643 to 0.000729643
Heightened Def Con from 0.000729654 to 0.000729662
Heightened Def Con from 0.000729824 to 0.000729824
Heightened Def Con from 0.000730132 to 0.000730134
Heightened Def Con from 0.000730152 to 0.000730157
Heightened Def Con from 0.000730158 to 0.000730158
Heightened Def Con from 0.000730169 to 0.000730176
Heightened Def Con from 0.000734189 to 0.000734191
Heightened Def Con from 0.000734192 to 0.000734193
Heightened Def Con from 0.000734529 to 0.000734529
Heightened Def Con from 0.000734679 to 0.000734679
Heightened Def Con from 0.00073468 to 0.000734703
Heightened Def Con from 0.000734706 to 0.000734706
Heightened Def Con from 0.000734716 to 0.000734724
Heightened Def Con from 0.000734882 to 0.000734883
Heightened Def Con from 0.000735204 to 0.000735211
Heightened Def Con from 0.000735212 to 0.000735212
Heightened Def Con from 0.000735222 to 0.000735232
Heightened Def Con from 0.000739231 to 0.000739231
Heightened Def Con from 0.000739739 to 0.000739739
Heightened Def Con from 0.00073975 to 0.000739757
Heightened Def Con from 0.000739887 to 0.000739887
Heightened Def Con from 0.00073991 to 0.000739914
Heightened Def Con from 0.000739914 to 0.000739915
Heightened Def Con from 0.00074023 to 0.000740235
Heightened Def Con from 0.000740237 to 0.000740237
Heightened Def Con from 0.000740248 to 0.000740255
Heightened Def Con from 0.000744248 to 0.000744248
Heightened Def Con from 0.000744571 to 0.000744571
Heightened Def Con from 0.000744749 to 0.000744755
Heightened Def Con from 0.000744756 to 0.000744756
Heightened Def Con from 0.000744766 to 0.000744773
Heightened Def Con from 0.000744924 to 0.000744927
Heightened Def Con from 0.000744928 to 0.000744929
Heightened Def Con from 0.000745223 to 0.000745225
Heightened Def Con from 0.000745242 to 0.000745249
Heightened Def Con from 0.00074525 to 0.00074525
Heightened Def Con from 0.000745261 to 0.00074527
Heightened Def Con from 0.000749271 to 0.000749271
Heightened Def Con from 0.000749756 to 0.000749756
Heightened Def Con from 0.000749783 to 0.000749783
Heightened Def Con from 0.000749794 to 0.000749802
Heightened Def Con from 0.000749953 to 0.000749953
Heightened Def Con from 0.000750276 to 0.000750276
Heightened Def Con from 0.000750286 to 0.000750293
Heightened Def Con from 0.0007543 to 0.0007543
Heightened Def Con from 0.000754781 to 0.000754781
Heightened Def Con from 0.000754803 to 0.000754808
Heightened Def Con from 0.000754809 to 0.000754809
Heightened Def Con from 0.00075482 to 0.000754828
Heightened Def Con from 0.000754979 to 0.000754979
Heightened Def Con from 0.00075527 +to 0.00075527
Heightened Def Con from 0.00075527 to 0.00075527
Heightened Def Con from 0.000755297 to 0.000755297
Heightened Def Con from 0.000755307 to 0.000755314
Heightened Def Con from 0.000759291 to 0.000759291
Heightened Def Con from 0.000759804 to 0.000759804
Heightened Def Con from 0.000759815 to 0.000759822
Heightened Def Con from 0.000759946 to 0.000759946
Heightened Def Con from 0.00075997 to 0.000759972
Heightened Def Con from 0.000759973 to 0.000759973
Heightened Def Con from 0.000760269 to 0.000760269
Heightened Def Con from 0.000760289 to 0.000760294
Heightened Def Con from 0.000760296 to 0.000760296
Heightened Def Con from 0.000760306 to 0.000760313
Heightened Def Con from 0.000764291 to 0.000764293
Heightened Def Con from 0.000764294 to 0.000764294
Heightened Def Con from 0.000764808 to 0.000764808
Heightened Def Con from 0.000764819 to 0.000764827
Heightened Def Con from 0.000764977 to 0.000764977
Heightened Def Con from 0.000765298 to 0.000765298
Heightened Def Con from 0.000765309 to 0.000765316
Heightened Def Con from 0.000769276 to 0.000769276
Heightened Def Con from 0.000769609 to 0.000769609
Heightened Def Con from 0.000769789 to 0.000769792
Heightened Def Con from 0.000769793 to 0.000769794
Heightened Def Con from 0.000769804 to 0.000769811
Heightened Def Con from 0.000769964 to 0.000769964
Heightened Def Con from 0.000770282 to 0.000770287
Heightened Def Con from 0.000770289 to 0.000770289
Heightened Def Con from 0.000770299 to 0.000770306
Heightened Def Con from 0.00077424 to 0.000774242
Heightened Def Con from 0.000774243 to 0.000774265
Heightened Def Con from 0.000774755 to 0.00077476
Heightened Def Con from 0.000774761 to 0.000774762
Heightened Def Con from 0.000774772 to 0.000774779
Heightened Def Con from 0.00077493 to 0.000774933
Heightened Def Con from 0.000774934 to 0.000774934
Heightened Def Con from 0.000775254 to 0.00077526
Heightened Def Con from 0.00077526 to 0.000775261
Heightened Def Con from 0.000775271 to 0.000775278
Heightened Def Con from 0.000779187 to 0.000779189
Heightened Def Con from 0.00077919 to 0.00077919
Heightened Def Con from 0.000779685 to 0.000779685
Heightened Def Con from 0.000779686 to 0.000779687
Heightened Def Con from 0.000779706 to 0.00077971
Heightened Def Con from 0.000779711 to 0.000779712
Heightened Def Con from 0.000779722 to 0.000779729
Heightened Def Con from 0.000779887 to 0.000779887
Heightened Def Con from 0.000780212 to 0.000780219
Heightened Def Con from 0.000780221 to 0.000780221
Heightened Def Con from 0.000780231 to 0.00078024
Heightened Def Con from 0.000784128 to 0.00078413
Heightened Def Con from 0.000784131 to 0.000784131
Heightened Def Con from 0.000784627 to 0.000784627
Heightened Def Con from 0.000784648 to 0.000784654
Heightened Def Con from 0.000784654 to 0.000784655
Heightened Def Con from 0.000784665 to 0.000784672
Heightened Def Con from 0.000784806 to 0.000784807
Heightened Def Con from 0.000784831 to 0.000784832
Heightened Def Con from 0.000784834 to 0.000784834
Heightened Def Con from 0.000785141 to 0.000785141
Heightened Def Con from 0.00078516 to 0.000785167
Heightened Def Con from 0.000785168 to 0.000785168
Heightened Def Con from 0.000785179 to 0.000785188
Heightened Def Con from 0.000789034 to 0.000789034
Heightened Def Con from 0.000789539 to 0.000789539
Heightened Def Con from 0.000789561 to 0.000789564
Heightened Def Con from 0.000789566 to 0.000789566
Heightened Def Con from 0.000789576 to 0.000789583
Heightened Def Con from 0.000789744 to 0.000789746
Heightened Def Con from 0.000789747 to 0.000789747
Heightened Def Con from 0.000790089 to 0.000790095
Heightened Def Con from 0.000790096 to 0.000790096
Heightened Def Con from 0.000790107 to 0.000790114
Heightened Def Con from 0.000793968 to 0.000793968
Heightened Def Con from 0.000794498 to 0.000794501
Heightened Def Con from 0.000794502 to 0.000794503
Heightened Def Con from 0.000794513 to 0.00079452
Heightened Def Con from 0.000794689 to 0.000794691
Heightened Def Con from 0.000794691 to 0.000794692
Heightened Def Con from 0.000795036 to 0.000795039
Heightened Def Con from 0.00079504 to 0.00079504
Heightened Def Con from 0.000795051 to 0.000795058
Heightened Def Con from 0.000798855 to 0.000798855
Heightened Def Con from 0.000799394 to 0.000799399
Heightened Def Con from 0.0007994 to 0.0007994
Heightened Def Con from 0.000799411 to 0.000799419
Heightened Def Con from 0.000799589 to 0.000799589
Heightened Def Con from 0.000799951 to 0.000799957
Heightened Def Con from 0.000799958 to 0.000799958
Heightened Def Con from 0.000799968 to 0.000799977
Heightened Def Con from 0.000803788 to 0.000803788
Heightened Def Con from 0.000804197 to 0.000804197
Heightened Def Con from 0.000804197 to 0.000804197
Heightened Def Con from 0.000804313 to 0.000804313
Heightened Def Con from 0.000804314 to 0.000804334
Heightened Def Con from 0.00080434 to 0.00080434
Heightened Def Con from 0.000804351 to 0.000804359
Heightened Def Con from 0.000804533 to 0.000804535
Heightened Def Con from 0.000804535 to 0.000804536
Heightened Def Con from 0.000804906 to 0.000804906
Heightened Def Con from 0.000804917 to 0.000804925
Heightened Def Con from 0.00080868 to 0.00080868
Heightened Def Con from 0.000809212 to 0.000809212
Heightened Def Con from 0.000809235 to 0.000809239
Heightened Def Con from 0.00080924 to 0.00080924
Heightened Def Con from 0.000809251 to 0.000809258
Heightened Def Con from 0.000809441 to 0.000809442
Heightened Def Con from 0.000809813 to 0.000809818
Heightened Def Con from 0.00080982 to 0.00080982
Heightened Def Con from 0.000809831 to 0.00080984
Heightened Def Con from 0.000813553 to 0.000813553
Heightened Def Con from 0.000814118 to 0.000814118
Heightened Def Con from 0.000814129 to 0.000814137
Heightened Def Con from 0.000814301 to 0.000814301
Heightened Def Con from 0.000814329 to 0.000814329
Heightened Def Con from 0.000814689 to 0.000814689
Heightened Def Con from 0.000814718 to 0.000814718
Heightened Def Con from 0.000814728 to 0.000814737
Heightened Def Con from 0.000818413 to 0.000818413
Heightened Def Con from 0.000818873 to 0.000818873
Heightened Def Con from 0.000818873 to 0.000818873
Heightened Def Con from 0.000818986 to 0.000818989
Heightened Def Con from 0.00081899 to 0.00081899
Heightened Def Con from 0.000819001 to 0.000819008
Heightened Def Con from 0.0008192 to 0.000819202
Heightened Def Con from 0.000819203 to 0.000819204
Heightened Def Con from 0.000819601 to 0.000819607
Heightened Def Con from 0.000819608 to 0.000819608
Heightened Def Con from 0.000819619 to 0.000819625
Heightened Def Con from 0.000823288 to 0.000823289
Heightened Def Con from 0.00082387 to 0.000823873
Heightened Def Con from 0.000823874 to 0.000823874
Heightened Def Con from 0.000823885 to 0.000823892
Heightened Def Con from 0.000824098 to 0.000824098
Heightened Def Con from 0.000824486 to 0.000824509
Heightened Def Con from 0.000824513 to 0.000824513
Heightened Def Con from 0.000824524 to 0.000824533
Heightened Def Con from 0.000828141 to 0.000828141
Heightened Def Con from 0.000828711 to 0.000828712
Heightened Def Con from 0.000828737 to 0.000828737
Heightened Def Con from 0.000828748 to 0.000828755
Heightened Def Con from 0.000828942 to 0.000828942
Heightened Def Con from 0.00082897 to 0.00082897
Heightened Def Con from 0.000829372 to 0.000829372
Heightened Def Con from 0.000829397 to 0.000829397
Heightened Def Con from 0.000829408 to 0.000829419
Heightened Def Con from 0.000832987 to 0.000832987
Heightened Def Con from 0.000833505 to 0.000833505
Heightened Def Con from 0.000833568 to 0.000833568
Heightened Def Con from 0.00083359 to 0.000833595
Heightened Def Con from 0.000833595 to 0.000833596
Heightened Def Con from 0.000833606 to 0.000833614
Heightened Def Con from 0.000833834 to 0.000833835
Heightened Def Con from 0.000833836 to 0.000833836
Heightened Def Con from 0.000834268 to 0.000834275
Heightened Def Con from 0.000834276 to 0.000834276
Heightened Def Con from 0.000834287 to 0.000834298
Heightened Def Con from 0.00083783 to 0.000837831
Heightened Def Con from 0.000838422 to 0.000838422
Heightened Def Con from 0.000838425 to 0.000838444
Heightened Def Con from 0.00083845 to 0.000838451
Heightened Def Con from 0.000838461 to 0.000838468
Heightened Def Con from 0.000838704 to 0.000838704
Heightened Def Con from 0.000839151 to 0.000839155
Heightened Def Con from 0.000839156 to 0.000839156
Heightened Def Con from 0.000839167 to 0.000839178
Heightened Def Con from 0.000842413 to 0.000842413
Heightened Def Con from 0.000842413 to 0.000842413
Heightened Def Con from 0.000842661 to 0.000842663
Heightened Def Con from 0.000842664 to 0.000842664
Heightened Def Con from 0.000843294 to 0.000843297
Heightened Def Con from 0.000843298 to 0.000843298
Heightened Def Con from 0.000843309 to 0.000843316
Heightened Def Con from 0.000843564 to 0.000843565
Heightened Def Con from 0.000843567 to 0.000843567
Heightened Def Con from 0.000844024 to 0.000844028
Heightened Def Con from 0.00084403 to 0.00084403
Heightened Def Con from 0.00084404 to 0.000844048
Heightened Def Con from 0.000847455 to 0.000847457
Heightened Def Con from 0.000847458 to 0.000847458
Heightened Def Con from 0.000848071 to 0.000848076
Heightened Def Con from 0.000848078 to 0.000848078
Heightened Def Con from 0.000848089 to 0.000848096
Heightened Def Con from 0.000848379 to 0.000848379
Heightened Def Con from 0.000848833 to 0.000848839
Heightened Def Con from 0.00084884 to 0.00084884
Heightened Def Con from 0.000848851 to 0.000848862
Heightened Def Con from 0.000852056 to 0.000852056
Heightened Def Con from 0.000852597 to 0.000852602
Heightened Def Con from 0.000852604 to 0.000852604
Heightened Def Con from 0.000852614 to 0.000852621
Heightened Def Con from 0.000853137 to 0.000853141
Heightened Def Con from 0.000853142 to 0.000853142
Heightened Def Con from 0.0008535 to 0.000853502
Heightened Def Con from 0.000853527 to 0.000853527
Heightened Def Con from 0.000853538 to 0.000853547
Heightened Def Con from 0.000855976 to 0.000855978
Heightened Def Con from 0.000855979 to 0.00085598
Heightened Def Con from 0.000856461 to 0.000856461
Heightened Def Con from 0.000856479 to 0.000856484
Heightened Def Con from 0.000856485 to 0.000856486
Heightened Def Con from 0.000856496 to 0.000856505
Heightened Def Con from 0.000856806 to 0.000856807
Heightened Def Con from 0.000857149 to 0.000857149
Heightened Def Con from 0.000857159 to 0.00085717
Heightened Def Con from 0.000859615 to 0.000859617
Heightened Def Con from 0.000859618 to 0.000859619
Heightened Def Con from 0.000860173 to 0.000860174
Heightened Def Con from 0.000860192 to 0.000860198
Heightened Def Con from 0.000860199 to 0.000860199
Heightened Def Con from 0.00086021 to 0.000860217
Heightened Def Con from 0.000860365 to 0.000860365
Heightened Def Con from 0.000860367 to 0.000860367
Heightened Def Con from 0.000860686 to 0.000860686
Heightened Def Con from 0.000860697 to 0.000860705
Heightened Def Con from 0.000863497 to 0.000863497
Heightened Def Con from 0.000864019 to 0.000864019
Heightened Def Con from 0.000864019 to 0.000864019
Heightened Def Con from 0.000864119 to 0.000864122
Heightened Def Con from 0.000864142 to 0.000864145
Heightened Def Con from 0.000864146 to 0.000864147
Heightened Def Con from 0.000864157 to 0.000864168
Heightened Def Con from 0.000864357 to 0.000864357
Heightened Def Con from 0.000864357 to 0.000864357
Heightened Def Con from 0.000864359 to 0.000864359
Heightened Def Con from 0.000864751 to 0.000864751
Heightened Def Con from 0.000864752 to 0.000864753
Heightened Def Con from 0.000864772 to 0.000864777
Heightened Def Con from 0.000864778 to 0.000864778
Heightened Def Con from 0.000864789 to 0.0008648
Heightened Def Con from 0.000867807 to 0.000867807
Heightened Def Con from 0.000868487 to 0.000868494
Heightened Def Con from 0.000868495 to 0.000868495
Heightened Def Con from 0.000868506 to 0.000868514
Heightened Def Con from 0.000868748 to 0.000868748
Heightened Def Con from 0.000868748 to 0.000868748
Heightened Def Con from 0.000868749 to 0.000868749
Heightened Def Con from 0.000869217 to 0.00086922
Heightened Def Con from 0.000869221 to 0.000869221
Heightened Def Con from 0.000869232 to 0.000869238
Heightened Def Con from 0.000872221 to 0.000872221
Heightened Def Con from 0.000872844 to 0.000872851
Heightened Def Con from 0.000872853 to 0.000872853
Heightened Def Con from 0.000872863 to 0.000872873
Heightened Def Con from 0.000873244 to 0.000873245
Heightened Def Con from 0.000873245 to 0.000873246
Heightened Def Con from 0.000873671 to 0.000873694
Heightened Def Con from 0.000873696 to 0.000873697
Heightened Def Con from 0.000873707 to 0.000873718
Heightened Def Con from 0.000876114 to 0.000876114
Heightened Def Con from 0.000876208 to 0.000876209
Heightened Def Con from 0.000876701 to 0.000876701
Heightened Def Con from 0.000876747 to 0.000876749
Heightened Def Con from 0.000876774 to 0.000876774
Heightened Def Con from 0.000876785 to 0.000876793
Heightened Def Con from 0.000877146 to 0.000877147
Heightened Def Con from 0.000877148 to 0.000877148
Heightened Def Con from 0.000877524 to 0.000877524
Heightened Def Con from 0.000877535 to 0.000877543
Heightened Def Con from 0.000879696 to 0.000879696
Heightened Def Con from 0.000880281 to 0.000880281
Heightened Def Con from 0.000880303 to 0.000880306
Heightened Def Con from 0.000880307 to 0.000880308
Heightened Def Con from 0.000880318 to 0.000880327
Heightened Def Con from 0.000880461 to 0.000880461
Heightened Def Con from 0.000880461 to 0.000880461
Heightened Def Con from 0.000880488 to 0.000880489
Heightened Def Con from 0.000880811 to 0.000880817
Heightened Def Con from 0.000880817 to 0.000880818
Heightened Def Con from 0.000880828 to 0.000880839
Heightened Def Con from 0.000883329 to 0.000883331
Heightened Def Con from 0.000883332 to 0.000883332
Heightened Def Con from 0.000883913 to 0.000883913
Heightened Def Con from 0.000883913 to 0.000883913
Heightened Def Con from 0.000883913 to 0.000883913
Heightened Def Con from 0.000883913 to 0.000883913
Heightened Def Con from 0.000884006 to 0.000884006
Heightened Def Con from 0.000884025 to 0.000884032
Heightened Def Con from 0.000884033 to 0.000884033
Heightened Def Con from 0.000884044 to 0.000884055
Heightened Def Con from 0.000884253 to 0.000884254
Heightened Def Con from 0.000884697 to 0.000884698
Heightened Def Con from 0.000884708 to 0.000884719
Heightened Def Con from 0.000887446 to 0.000887446
Heightened Def Con from 0.000888151 to 0.000888157
Heightened Def Con from 0.000888158 to 0.000888158
Heightened Def Con from 0.000888169 to 0.00088818
Heightened Def Con from 0.000888473 to 0.000888473
Heightened Def Con from 0.000888473 to 0.000888473
Heightened Def Con from 0.000888952 to 0.000888955
Heightened Def Con from 0.000888956 to 0.000888956
Heightened Def Con from 0.000888967 to 0.000888978
Heightened Def Con from 0.000891471 to 0.000891472
Heightened Def Con from 0.000891473 to 0.000891474
Heightened Def Con from 0.000892068 to 0.000892068
Heightened Def Con from 0.000892095 to 0.000892095
Heightened Def Con from 0.000892106 to 0.000892117
Heightened Def Con from 0.000893527 to 0.000893528
Heightened Def Con from 0.00089353 to 0.00089353
Heightened Def Con from 0.000894166 to 0.000894167
Heightened Def Con from 0.000894167 to 0.000894167
Heightened Def Con from 0.000894185 to 0.000894191
Heightened Def Con from 0.000894193 to 0.000894193
Heightened Def Con from 0.000894204 to 0.000894212
Heightened Def Con from 0.000894412 to 0.000894412
Heightened Def Con from 0.000894413 to 0.000894434
Heightened Def Con from 0.000894831 to 0.000894838
Heightened Def Con from 0.00089484 to 0.00089484
Heightened Def Con from 0.00089485 to 0.000894853
Heightened Def Con from 0.000897452 to 0.000897454
Heightened Def Con from 0.000897455 to 0.000897455
Heightened Def Con from 0.000898166 to 0.000898168
Heightened Def Con from 0.000898187 to 0.000898191
Heightened Def Con from 0.000898192 to 0.000898193
Heightened Def Con from 0.000898203 to 0.000898211
Heightened Def Con from 0.000898514 to 0.000898514
Heightened Def Con from 0.000898514 to 0.000898535
Heightened Def Con from 0.000898997 to 0.000899004
Heightened Def Con from 0.000899005 to 0.000899005
Heightened Def Con from 0.000899016 to 0.000899027
Heightened Def Con from 0.000901373 to 0.000901374
Heightened Def Con from 0.000901375 to 0.000901375
Heightened Def Con from 0.000901962 to 0.000901962
Heightened Def Con from 0.000901962 to 0.000901962
Heightened Def Con from 0.000901962 to 0.000901962
Heightened Def Con from 0.000902009 to 0.000902016
Heightened Def Con from 0.000902018 to 0.000902018
Heightened Def Con from 0.000902028 to 0.000902035
Heightened Def Con from 0.000903407 to 0.000903408
Heightened Def Con from 0.000903982 to 0.000903982
Heightened Def Con from 0.000903982 +to 0.000903982
Heightened Def Con from 0.000903982 to 0.000903982
Heightened Def Con from 0.000903982 to 0.000903982
Heightened Def Con from 0.000904101 to 0.000904107
Heightened Def Con from 0.000904107 to 0.000904107
Heightened Def Con from 0.000904118 to 0.000904129
Heightened Def Con from 0.000904329 to 0.000904329
Heightened Def Con from 0.000904779 to 0.000904779
Heightened Def Con from 0.00090479 to 0.000904801
Heightened Def Con from 0.000907267 to 0.000907268
Heightened Def Con from 0.000907269 to 0.000907269
Heightened Def Con from 0.000908011 to 0.000908011
Heightened Def Con from 0.000908021 to 0.000908029
Heightened Def Con from 0.000908411 to 0.000908411
Heightened Def Con from 0.000908896 to 0.000908897
Heightened Def Con from 0.000908907 to 0.000908912
Heightened Def Con from 0.000910949 to 0.00091095
Heightened Def Con from 0.000910951 to 0.000910951
Heightened Def Con from 0.00091157 to 0.000911571
Heightened Def Con from 0.000911589 to 0.000911596
Heightened Def Con from 0.000911597 to 0.000911597
Heightened Def Con from 0.000911607 to 0.000911618
Heightened Def Con from 0.000912003 to 0.000912003
Heightened Def Con from 0.000912003 to 0.000912024
Heightened Def Con from 0.000912393 to 0.000912393
Heightened Def Con from 0.000912403 to 0.000912414
Heightened Def Con from 0.000914148 to 0.000914149
Heightened Def Con from 0.000914872 to 0.000914895
Heightened Def Con from 0.000914898 to 0.000914898
Heightened Def Con from 0.000914909 to 0.00091492
Heightened Def Con from 0.000915072 to 0.000915073
Heightened Def Con from 0.000915447 to 0.000915448
Heightened Def Con from 0.000915468 to 0.000915473
Heightened Def Con from 0.000915474 to 0.000915474
Heightened Def Con from 0.000915485 to 0.000915496
Heightened Def Con from 0.000917762 to 0.000917763
Heightened Def Con from 0.000918506 to 0.000918506
Heightened Def Con from 0.000918596 to 0.000918597
Heightened Def Con from 0.000918607 to 0.000918618
Heightened Def Con from 0.000918871 to 0.000918872
Heightened Def Con from 0.000918873 to 0.000918892
Heightened Def Con from 0.000919376 to 0.000919379
Heightened Def Con from 0.00091938 to 0.00091938
Heightened Def Con from 0.000919391 to 0.000919402
Heightened Def Con from 0.000921585 to 0.000921585
Heightened Def Con from 0.00092226 to 0.00092226
Heightened Def Con from 0.000922268 to 0.000922268
Heightened Def Con from 0.000922295 to 0.000922295
Heightened Def Con from 0.000922306 to 0.000922317
Heightened Def Con from 0.000923509 to 0.000923509
Heightened Def Con from 0.00092351 to 0.00092351
Heightened Def Con from 0.00092425 to 0.00092425
Heightened Def Con from 0.000924261 to 0.000924272
Heightened Def Con from 0.000924473 to 0.000924473
Heightened Def Con from 0.000924477 to 0.000924495
Heightened Def Con from 0.00092493 to 0.000924937
Heightened Def Con from 0.000924938 to 0.000924938
Heightened Def Con from 0.000924948 to 0.000924952
Heightened Def Con from 0.000927143 to 0.000927144
Heightened Def Con from 0.000927145 to 0.000927145
Heightened Def Con from 0.000927914 to 0.000927914
Heightened Def Con from 0.000927941 to 0.000927941
Heightened Def Con from 0.000927951 to 0.000927962
Heightened Def Con from 0.000929072 to 0.000929072
Heightened Def Con from 0.000929152 to 0.000929152
Heightened Def Con from 0.000929152 to 0.000929153
Heightened Def Con from 0.000929153 to 0.000929153
Heightened Def Con from 0.000929892 to 0.000929892
Heightened Def Con from 0.000929903 to 0.000929908
Heightened Def Con from 0.000930072 to 0.000930072
Heightened Def Con from 0.000930484 to 0.00093049
Heightened Def Con from 0.000930491 to 0.000930491
Heightened Def Con from 0.000930501 to 0.000930512
Heightened Def Con from 0.000932634 to 0.000932635
Heightened Def Con from 0.000932635 to 0.000932635
Heightened Def Con from 0.000933451 to 0.000933451
Heightened Def Con from 0.000933451 to 0.000933451
Heightened Def Con from 0.000933528 to 0.000933534
Heightened Def Con from 0.000933535 to 0.000933536
Heightened Def Con from 0.000933546 to 0.000933551
Heightened Def Con from 0.000933823 to 0.000933823
Heightened Def Con from 0.000934362 to 0.000934362
Heightened Def Con from 0.000936387 to 0.000936387
Heightened Def Con from 0.000936388 to 0.000936388
Heightened Def Con from 0.000937095 to 0.000937095
Heightened Def Con from 0.000937136 to 0.000937139
Heightened Def Con from 0.00093714 to 0.00093714
Heightened Def Con from 0.000937151 to 0.000937153
Heightened Def Con from 0.000938306 to 0.000938306
Heightened Def Con from 0.000938306 to 0.000938306
Heightened Def Con from 0.000938306 to 0.000938307
Heightened Def Con from 0.000939112 to 0.000939112
Heightened Def Con from 0.000939122 to 0.000939133
Heightened Def Con from 0.000939352 to 0.000939353
Heightened Def Con from 0.000939817 to 0.000939817
Heightened Def Con from 0.000939838 to 0.000939844
Heightened Def Con from 0.000939845 to 0.000939846
Heightened Def Con from 0.000941854 to 0.000941854
Heightened Def Con from 0.000941855 to 0.000941855
Heightened Def Con from 0.000942648 to 0.000942651
Heightened Def Con from 0.000942652 to 0.000942653
Heightened Def Con from 0.000942663 to 0.000942674
Heightened Def Con from 0.00094373 to 0.000943731
Heightened Def Con from 0.000943731 to 0.000943752
Heightened Def Con from 0.000944508 to 0.000944511
Heightened Def Con from 0.000944512 to 0.000944512
Heightened Def Con from 0.000944523 to 0.000944534
Heightened Def Con from 0.000944726 to 0.000944726
Heightened Def Con from 0.000945191 to 0.000945197
Heightened Def Con from 0.000945198 to 0.000945198
Heightened Def Con from 0.000947157 to 0.000947157
Heightened Def Con from 0.000947157 to 0.000947157
Heightened Def Con from 0.000947994 to 0.000947994
Heightened Def Con from 0.000947994 to 0.000947994
Heightened Def Con from 0.000947994 to 0.000947994
Heightened Def Con from 0.000948036 to 0.000948042
Heightened Def Con from 0.000948043 to 0.000948043
Heightened Def Con from 0.000948054 to 0.000948065
Heightened Def Con from 0.000949164 to 0.000949165
Heightened Def Con from 0.000949165 to 0.000949186
Heightened Def Con from 0.000949961 to 0.000949962
Heightened Def Con from 0.000949963 to 0.000949968
Heightened Def Con from 0.000949969 to 0.00094997
Heightened Def Con from 0.00094998 to 0.000949984
Heightened Def Con from 0.000950149 to 0.000950149
Heightened Def Con from 0.000950566 to 0.000950568
Heightened Def Con from 0.000950594 to 0.000950594
Heightened Def Con from 0.000952308 to 0.000952308
Heightened Def Con from 0.000952308 to 0.000952308
Heightened Def Con from 0.000952308 to 0.000952308
Heightened Def Con from 0.000952509 to 0.000952509
Heightened Def Con from 0.000953482 to 0.000953483
Heightened Def Con from 0.000953493 to 0.000953497
Heightened Def Con from 0.000953823 to 0.000953823
Heightened Def Con from 0.000954381 to 0.000954381
Heightened Def Con from 0.000956085 to 0.000956085
Heightened Def Con from 0.000956086 to 0.000956107
Heightened Def Con from 0.000956832 to 0.000956832
Heightened Def Con from 0.000956868 to 0.000956869
Heightened Def Con from 0.000956894 to 0.000956895
Heightened Def Con from 0.000956905 to 0.000956916
Heightened Def Con from 0.00095797 to 0.00095797
Heightened Def Con from 0.000957998 to 0.000957998
Heightened Def Con from 0.000957999 to 0.000958019
Heightened Def Con from 0.000958859 to 0.000958859
Heightened Def Con from 0.000958886 to 0.000958886
Heightened Def Con from 0.000959171 to 0.000959171
Heightened Def Con from 0.000959706 to 0.000959706
Heightened Def Con from 0.000961425 to 0.000961425
Heightened Def Con from 0.000961427 to 0.000961447
Heightened Def Con from 0.00096226 to 0.000962261
Heightened Def Con from 0.000962263 to 0.000962268
Heightened Def Con from 0.000962269 to 0.000962269
Heightened Def Con from 0.00096228 to 0.000962284
Heightened Def Con from 0.000963298 to 0.000963298
Heightened Def Con from 0.000963301 to 0.00096332
Heightened Def Con from 0.000964181 to 0.000964181
Heightened Def Con from 0.000964439 to 0.00096444
Heightened Def Con from 0.000964961 to 0.000964961
Heightened Def Con from 0.000966646 to 0.000966648
Heightened Def Con from 0.000966648 to 0.000966668
Heightened Def Con from 0.000967497 to 0.000967497
Heightened Def Con from 0.000967519 to 0.000967525
Heightened Def Con from 0.000967526 to 0.000967526
Heightened Def Con from 0.000967537 to 0.000967548
Heightened Def Con from 0.000968496 to 0.000968497
Heightened Def Con from 0.000969345 to 0.000969345
Heightened Def Con from 0.000969367 to 0.000969373
Heightened Def Con from 0.000969374 to 0.000969374
Heightened Def Con from 0.000969622 to 0.000969622
Heightened Def Con from 0.000970139 to 0.000970139
Heightened Def Con from 0.00097163 to 0.00097163
Heightened Def Con from 0.000971778 to 0.000971778
Heightened Def Con from 0.000972682 to 0.000972683
Heightened Def Con from 0.000972703 to 0.000972707
Heightened Def Con from 0.000972708 to 0.000972708
Heightened Def Con from 0.000973664 to 0.000973664
Heightened Def Con from 0.000974558 to 0.000974558
Heightened Def Con from 0.000974792 to 0.000974792
Heightened Def Con from 0.000975277 to 0.000975301
Heightened Def Con from 0.000975303 to 0.000975303
Heightened Def Con from 0.000976746 to 0.000976746
Heightened Def Con from 0.000976897 to 0.000976897
Heightened Def Con from 0.0009769 to 0.000976919
Heightened Def Con from 0.000977875 to 0.000977875
Heightened Def Con from 0.00097883 to 0.00097883
Heightened Def Con from 0.000979751 to 0.000979751
Heightened Def Con from 0.000979965 to 0.00097997
Heightened Def Con from 0.000979971 to 0.000979971
Heightened Def Con from 0.00098048 to 0.00098048
Heightened Def Con from 0.000982043 to 0.000982043
Heightened Def Con from 0.000983089 to 0.00098309
Heightened Def Con from 0.000984045 to 0.000984045
Heightened Def Con from 0.000984995 to 0.000984996
Heightened Def Con from 0.000985193 to 0.000985193
Heightened Def Con from 0.000985695 to 0.000985695
Heightened Def Con from 0.000987241 to 0.000987241
Heightened Def Con from 0.000988304 to 0.000988304
Heightened Def Con from 0.000988304 +to 0.000988304
Heightened Def Con from 0.000988304 +to 0.000988304
Heightened Def Con from 0.000988304 to 0.000988304
Heightened Def Con from 0.000988304 to 0.000988304
Heightened Def Con from 0.000988376 to 0.000988376
Heightened Def Con from 0.000989266 to 0.000989266
Heightened Def Con from 0.000989266 to 0.000989266
Heightened Def Con from 0.00098934 to 0.00098934
Heightened Def Con from 0.000990295 to 0.000990295
Heightened Def Con from 0.000990509 to 0.00099051
Heightened Def Con from 0.000990515 to 0.000990515
Heightened Def Con from 0.000991016 to 0.000991016
Heightened Def Con from 0.000992477 to 0.000992477
Heightened Def Con from 0.00099366 to 0.000993684
Heightened Def Con from 0.000993686 to 0.000993686
Heightened Def Con from 0.00099465 to 0.000994651
Heightened Def Con from 0.000995585 to 0.000995585
Heightened Def Con from 0.000995889 to 0.000995894
Heightened Def Con from 0.000995895 to 0.000995895
Heightened Def Con from 0.000996408 to 0.000996408
Heightened Def Con from 0.000997712 to 0.000997712
Heightened Def Con from 0.000998934 to 0.000998958
Heightened Def Con from 0.00099896 to 0.000998961
Heightened Def Con from 0.000999907 to 0.000999907
Heightened Def Con from 0.00100079 to 0.00100079
Heightened Def Con from 0.00100082 to 0.00100082
Heightened Def Con from 0.0010018 to 0.0010018
Heightened Def Con from 0.00100282 to 0.00100282
Heightened Def Con from 0.00100367 to 0.00100367
Heightened Def Con from 0.00100469 to 0.00100471
Heightened Def Con from 0.00100471 to 0.00100472
Heightened Def Con from 0.00100497 to 0.00100498
Heightened Def Con from 0.00100499 to 0.001005
Heightened Def Con from 0.00100551 to 0.00100551
Heightened Def Con from 0.00100554 to 0.00100554
Heightened Def Con from 0.00100687 to 0.00100687
Heightened Def Con from 0.00100807 to 0.00100807
Heightened Def Con from 0.00100891 to 0.00100891
Heightened Def Con from 0.00100996 to 0.00100996
Heightened Def Con from 0.00100999 to 0.00100999
Heightened Def Con from 0.00101022 to 0.00101022
Heightened Def Con from 0.00101022 to 0.00101022
Heightened Def Con from 0.00101023 to 0.00101024
Heightened Def Con from 0.00101077 to 0.00101078
Heightened Def Con from 0.00101078 to 0.0010108
Heightened Def Con from 0.00101209 to 0.00101209
Heightened Def Con from 0.00101338 to 0.00101338
Heightened Def Con from 0.00101422 to 0.00101422
Heightened Def Con from 0.00101529 to 0.00101529
Heightened Def Con from 0.00101529 to 0.00101531
Heightened Def Con from 0.00101556 to 0.00101556
Heightened Def Con from 0.00101557 to 0.00101558
Heightened Def Con from 0.00101612 to 0.00101612
Heightened Def Con from 0.00101718 to 0.00101718
Heightened Def Con from 0.00101718 to 0.00101718
Heightened Def Con from 0.00101736 to 0.00101737
Heightened Def Con from 0.00101873 to 0.00101873
Heightened Def Con from 0.00101873 to 0.00101875
Heightened Def Con from 0.00101955 to 0.00101956
Heightened Def Con from 0.00101956 to 0.00101956
Heightened Def Con from 0.0010206 to 0.00102061
Heightened Def Con from 0.00102153 to 0.00102153
Heightened Def Con from 0.00102259 to 0.00102259
Heightened Def Con from 0.00102262 to 0.00102262
Heightened Def Con from 0.00102262 to 0.00102264
Heightened Def Con from 0.00102337 to 0.00102337
Heightened Def Con from 0.00102337 to 0.00102337
Heightened Def Con from 0.00102436 to 0.00102436
Heightened Def Con from 0.00102436 to 0.00102436
Heightened Def Con from 0.00102436 to 0.00102436
Heightened Def Con from 0.00102452 to 0.00102452
Heightened Def Con from 0.00102537 to 0.00102537
Heightened Def Con from 0.00102537 to 0.00102537
Heightened Def Con from 0.0010264 to 0.0010264
Heightened Def Con from 0.00102724 to 0.00102724
Heightened Def Con from 0.00102724 to 0.00102724
Heightened Def Con from 0.00102844 to 0.00102844
Heightened Def Con from 0.00102844 to 0.00102844
Heightened Def Con from 0.00102847 to 0.00102847
Heightened Def Con from 0.00102925 to 0.00102925
Heightened Def Con from 0.00102925 to 0.00102925
Heightened Def Con from 0.00103039 to 0.00103039
Heightened Def Con from 0.00103039 to 0.00103041
Heightened Def Con from 0.00103129 to 0.00103129
Heightened Def Con from 0.00103241 to 0.00103241
Heightened Def Con from 0.00103242 to 0.00103242
Heightened Def Con from 0.00103243 to 0.00103243
Heightened Def Con from 0.00103243 to 0.00103245
Heightened Def Con from 0.00103318 to 0.00103318
Heightened Def Con from 0.00103318 to 0.00103318
Heightened Def Con from 0.00103439 to 0.00103439
Heightened Def Con from 0.00103442 to 0.00103442
Heightened Def Con from 0.00103523 to 0.00103523
Heightened Def Con from 0.00103523 to 0.00103523
Heightened Def Con from 0.0010363 to 0.0010363
Heightened Def Con from 0.00103712 to 0.00103712
Heightened Def Con from 0.00103839 to 0.0010384
Heightened Def Con from 0.0010384 to 0.0010384
Heightened Def Con from 0.00103913 to 0.00103913
Heightened Def Con from 0.00103914 to 0.00103915
Heightened Def Con from 0.00104033 to 0.00104033
Heightened Def Con from 0.00104033 to 0.00104033
Heightened Def Con from 0.0010412 to 0.0010412
Heightened Def Con from 0.0010412 to 0.0010412
Heightened Def Con from 0.00104242 to 0.00104242
Heightened Def Con from 0.00104314 to 0.00104315
Heightened Def Con from 0.00104315 to 0.00104315
Heightened Def Con from 0.00104316 to 0.00104317
Heightened Def Con from 0.00104442 to 0.00104442
Heightened Def Con from 0.00104445 to 0.00104445
Heightened Def Con from 0.00104445 to 0.00104445
Heightened Def Con from 0.00104521 to 0.00104522
Heightened Def Con from 0.00104522 to 0.00104522
Heightened Def Con from 0.00104523 to 0.00104523
Heightened Def Con from 0.00104633 to 0.00104633
Heightened Def Con from 0.00104633 to 0.00104633
Heightened Def Con from 0.0010471 to 0.0010471
Heightened Def Con from 0.0010471 to 0.0010471
Heightened Def Con from 0.00104711 to 0.00104712
Heightened Def Con from 0.00104843 to 0.00104843
Heightened Def Con from 0.00104843 to 0.00104843
Heightened Def Con from 0.00104912 to 0.00104913
Heightened Def Con from 0.00104913 to 0.00104913
Heightened Def Con from 0.00104914 to 0.00104915
Heightened Def Con from 0.00105035 +to 0.00105035
Heightened Def Con from 0.00105035 +to 0.00105035
Heightened Def Con from 0.00105038 to 0.00105038
Heightened Def Con from 0.0010512 to 0.0010512
Heightened Def Con from 0.0010512 to 0.0010512
Heightened Def Con from 0.00105121 to 0.00105122
Heightened Def Con from 0.00105244 to 0.00105244
Heightened Def Con from 0.00105247 to 0.00105247
Heightened Def Con from 0.00105247 to 0.00105247
Heightened Def Con from 0.00105314 to 0.00105315
Heightened Def Con from 0.00105315 to 0.00105315
Heightened Def Con from 0.00105316 to 0.00105317
Heightened Def Con from 0.00105449 to 0.00105449
Heightened Def Con from 0.00105449 to 0.00105449
Heightened Def Con from 0.00105522 to 0.00105522
Heightened Def Con from 0.00105522 to 0.00105522
Heightened Def Con from 0.00105524 to 0.00105525
Heightened Def Con from 0.00105636 to 0.00105636
Heightened Def Con from 0.00105639 to 0.00105639
Heightened Def Con from 0.00105713 to 0.00105713
Heightened Def Con from 0.00105715 to 0.00105715
Heightened Def Con from 0.00105853 to 0.00105854
Heightened Def Con from 0.0010592 to 0.0010592
Heightened Def Con from 0.0010592 to 0.0010592
Heightened Def Con from 0.00105922 to 0.00105922
Heightened Def Con from 0.00106048 to 0.00106048
Heightened Def Con from 0.0010605 to 0.0010605
Heightened Def Con from 0.00106129 to 0.00106129
Heightened Def Con from 0.00106129 to 0.00106129
Heightened Def Con from 0.00106131 to 0.00106132
Heightened Def Con from 0.00106261 to 0.00106261
Heightened Def Con from 0.00106323 to 0.00106323
Heightened Def Con from 0.00106323 to 0.00106323
Heightened Def Con from 0.00106324 to 0.00106325
Heightened Def Con from 0.0010646 to 0.0010646
Heightened Def Con from 0.00106531 to 0.00106531
Heightened Def Con from 0.00106532 to 0.00106532
Heightened Def Con from 0.00106533 to 0.00106534
Heightened Def Con from 0.00106653 to 0.00106654
Heightened Def Con from 0.00106656 to 0.00106656
Heightened Def Con from 0.00106728 to 0.00106728
Heightened Def Con from 0.00106729 to 0.0010673
Heightened Def Con from 0.00106876 to 0.00106878
Heightened Def Con from 0.00106879 to 0.00106879
Heightened Def Con from 0.00106943 to 0.00106943
Heightened Def Con from 0.00106943 to 0.00106943
Heightened Def Con from 0.00106944 to 0.00106945
Heightened Def Con from 0.00107075 to 0.00107075
Heightened Def Con from 0.00107149 to 0.0010715
Heightened Def Con from 0.0010715 to 0.0010715
Heightened Def Con from 0.00107151 to 0.00107152
Heightened Def Con from 0.00107289 to 0.00107289
Heightened Def Con from 0.00107289 to 0.00107291
Heightened Def Con from 0.00107292 to 0.00107292
Heightened Def Con from 0.00107292 to 0.00107292
Heightened Def Con from 0.00107338 to 0.00107338
Heightened Def Con from 0.00107338 to 0.00107338
Heightened Def Con from 0.00107352 to 0.00107352
Heightened Def Con from 0.00107352 to 0.00107352
Heightened Def Con from 0.00107354 to 0.00107355
Heightened Def Con from 0.00107499 to 0.00107499
Heightened Def Con from 0.00107573 to 0.00107574
Heightened Def Con from 0.00107574 to 0.00107574
Heightened Def Con from 0.00107575 to 0.00107576
Heightened Def Con from 0.00107712 to 0.00107712
Heightened Def Con from 0.00107712 to 0.00107715
Heightened Def Con from 0.00107715 to 0.00107715
Heightened Def Con from 0.00107781 to 0.00107782
Heightened Def Con from 0.00107782 to 0.00107782
Heightened Def Con from 0.00107783 to 0.00107784
Heightened Def Con from 0.00107941 to 0.00107941
Heightened Def Con from 0.00108002 to 0.00108002
Heightened Def Con from 0.00108005 to 0.00108005
Heightened Def Con from 0.00108006 to 0.00108007
Heightened Def Con from 0.00108122 to 0.00108122
Heightened Def Con from 0.00108122 to 0.00108122
Heightened Def Con from 0.00108122 to 0.00108122
Heightened Def Con from 0.00108122 to 0.00108122
Heightened Def Con from 0.00108122 +to 0.00108122
Heightened Def Con from 0.00108122 to 0.00108122
Heightened Def Con from 0.00108133 to 0.00108133
Heightened Def Con from 0.00108199 to 0.001082
Heightened Def Con from 0.001082 to 0.001082
Heightened Def Con from 0.00108201 to 0.00108202
Heightened Def Con from 0.00108349 to 0.00108349
Heightened Def Con from 0.00108349 to 0.00108349
Heightened Def Con from 0.00108349 to 0.00108349
Heightened Def Con from 0.00108349 to 0.00108349
Heightened Def Con from 0.00108349 to 0.00108349
Heightened Def Con from 0.00108356 to 0.00108356
Heightened Def Con from 0.00108415 to 0.00108416
Heightened Def Con from 0.00108417 to 0.00108418
Heightened Def Con from 0.00108543 +to 0.00108543
Heightened Def Con from 0.00108561 to 0.00108561
Heightened Def Con from 0.00108632 to 0.00108632
Heightened Def Con from 0.00108632 to 0.00108632
Heightened Def Con from 0.00108633 to 0.00108634
Heightened Def Con from 0.00108779 to 0.00108779
Heightened Def Con from 0.00108782 to 0.00108782
Heightened Def Con from 0.00108782 to 0.00108782
Heightened Def Con from 0.00108838 to 0.00108838
Heightened Def Con from 0.00108839 to 0.0010884
Heightened Def Con from 0.00108995 to 0.00108995
Heightened Def Con from 0.00109064 to 0.00109064
Heightened Def Con from 0.00109065 to 0.00109066
Heightened Def Con from 0.00109211 to 0.00109211
Heightened Def Con from 0.00109214 to 0.00109214
Heightened Def Con from 0.00109277 to 0.00109277
Heightened Def Con from 0.00109278 to 0.00109279
Heightened Def Con from 0.00109447 to 0.00109447
Heightened Def Con from 0.0010945 to 0.0010945
Heightened Def Con from 0.0010951 to 0.0010951
Heightened Def Con from 0.00109511 to 0.00109512
Heightened Def Con from 0.00109638 to 0.00109638
Heightened Def Con from 0.00109638 to 0.00109638
Heightened Def Con from 0.00109645 to 0.00109645
Heightened Def Con from 0.00109645 to 0.00109645
Heightened Def Con from 0.00109645 to 0.00109645
Heightened Def Con from 0.00109648 to 0.00109648
Heightened Def Con from 0.00109711 to 0.00109711
Heightened Def Con from 0.00109712 to 0.00109713
Heightened Def Con from 0.00109872 to 0.00109872
Heightened Def Con from 0.00109872 to 0.00109872
Heightened Def Con from 0.00109872 to 0.00109872
Heightened Def Con from 0.0010988 to 0.0010988
Heightened Def Con from 0.0010988 to 0.0010988
Heightened Def Con from 0.00109882 to 0.00109883
Heightened Def Con from 0.00109939 to 0.00109939
Heightened Def Con from 0.0010994 to 0.00109941
Heightened Def Con from 0.0011009 to 0.0011009
Heightened Def Con from 0.00110093 to 0.00110093
Heightened Def Con from 0.00110158 to 0.00110158
Heightened Def Con from 0.0011016 to 0.00110161
Heightened Def Con from 0.00110323 to 0.00110325
Heightened Def Con from 0.00110325 to 0.00110325
Heightened Def Con from 0.00110379 to 0.00110379
Heightened Def Con from 0.0011038 to 0.00110381
Heightened Def Con from 0.00110523 to 0.00110523
Heightened Def Con from 0.00110544 to 0.00110544
Heightened Def Con from 0.0011061 to 0.0011061
Heightened Def Con from 0.00110611 to 0.00110612
Heightened Def Con from 0.00110773 to 0.00110773
Heightened Def Con from 0.00110824 to 0.00110824
Heightened Def Con from 0.00110825 to 0.00110826
Heightened Def Con from 0.00110997 to 0.00110997
Heightened Def Con from 0.0011106 to 0.0011106
Heightened Def Con from 0.00111061 to 0.00111062
Heightened Def Con from 0.00111221 to 0.00111221
Heightened Def Con from 0.00111221 to 0.00111221
Heightened Def Con from 0.00111257 +++++++++++++++++++to 0.00111257
Heightened Def Con from 0.00111279 to 0.00111279
Heightened Def Con from 0.0011128 to 0.00111281
Heightened Def Con from 0.00111467 to 0.00111467
Heightened Def Con from 0.00111527 to 0.00111528
Heightened Def Con from 0.00111529 to 0.0011153
Heightened Def Con from 0.00111682 to 0.00111682
Heightened Def Con from 0.00111686 to 0.00111686
Heightened Def Con from 0.00111746 to 0.00111746
Heightened Def Con from 0.00111747 to 0.00111748
Heightened Def Con from 0.00111929 to 0.00111929
Heightened Def Con from 0.00111947 to 0.00111947
Heightened Def Con from 0.00112001 to 0.00112001
Heightened Def Con from 0.00112003 to 0.00112004
Heightened Def Con from 0.00112152 +to 0.00112152
Heightened Def Con from 0.00112157 to 0.00112157
Heightened Def Con from 0.00112157 to 0.00112157
Heightened Def Con from 0.00112159 to 0.00112159
Heightened Def Con from 0.00112218 to 0.00112218
Heightened Def Con from 0.00112219 to 0.0011222
Heightened Def Con from 0.00112419 to 0.00112419
Heightened Def Con from 0.00112419 to 0.00112419
Heightened Def Con from 0.00112471 to 0.00112471
Heightened Def Con from 0.00112472 to 0.00112473
Heightened Def Con from 0.00112637 to 0.00112637
Heightened Def Con from 0.00112696 to 0.00112696
Heightened Def Con from 0.00112697 to 0.00112698
Heightened Def Con from 0.00112896 to 0.00112896
Heightened Def Con from 0.00112898 to 0.00112898
Heightened Def Con from 0.00112949 to 0.00112949
Heightened Def Con from 0.0011295 to 0.00112951
Heightened Def Con from 0.0011311 to 0.0011311
Heightened Def Con from 0.0011311 to 0.0011311
Heightened Def Con from 0.0011311 to 0.0011311
Heightened Def Con from 0.00113122 to 0.00113122
Heightened Def Con from 0.00113122 to 0.00113122
Heightened Def Con from 0.0011318 to 0.0011318
Heightened Def Con from 0.00113182 to 0.00113183
Heightened Def Con from 0.00113382 to 0.00113382
Heightened Def Con from 0.00113385 to 0.00113385
Heightened Def Con from 0.00113435 to 0.00113435
Heightened Def Con from 0.00113436 to 0.00113437
Heightened Def Con from 0.00113611 to 0.00113611
Heightened Def Con from 0.00113611 to 0.00113611
Heightened Def Con from 0.00113614 to 0.00113614
Heightened Def Con from 0.00113614 to 0.00113614
Heightened Def Con from 0.00113671 to 0.00113671
Heightened Def Con from 0.00113672 to 0.00113673
Heightened Def Con from 0.00113879 to 0.00113879
Heightened Def Con from 0.00113879 to 0.00113879
Heightened Def Con from 0.00113927 to 0.00113927
Heightened Def Con from 0.00113928 to 0.00113929
Heightened Def Con from 0.00114108 to 0.0011411
Heightened Def Con from 0.0011411 to 0.00114111
Heightened Def Con from 0.00114167 to 0.00114167
Heightened Def Con from 0.00114168 to 0.00114169
Heightened Def Con from 0.0011438 to 0.0011438
Heightened Def Con from 0.00114428 to 0.00114428
Heightened Def Con from 0.00114429 to 0.0011443
Heightened Def Con from 0.00114616 to 0.00114617
Heightened Def Con from 0.00114617 to 0.00114617
Heightened Def Con from 0.00114672 to 0.00114672
Heightened Def Con from 0.00114673 to 0.00114674
Heightened Def Con from 0.0011489 to 0.0011489
Heightened Def Con from 0.00114892 to 0.00114892
Heightened Def Con from 0.00114892 to 0.00114892
Heightened Def Con from 0.00114939 to 0.00114939
Heightened Def Con from 0.0011494 to 0.00114941
Heightened Def Con from 0.00115126 to 0.00115126
Heightened Def Con from 0.00115129 to 0.00115129
Heightened Def Con from 0.00115183 to 0.00115183
Heightened Def Con from 0.00115184 to 0.00115185
Heightened Def Con from 0.00115411 to 0.00115412
Heightened Def Con from 0.00115412 to 0.00115412
Heightened Def Con from 0.00115458 to 0.00115458
Heightened Def Con from 0.0011546 to 0.00115461
Heightened Def Con from 0.00115647 to 0.00115647
Heightened Def Con from 0.00115649 to 0.00115649
Heightened Def Con from 0.00115702 to 0.00115702
Heightened Def Con from 0.00115703 to 0.00115704
Heightened Def Con from 0.00115925 to 0.00115925
Heightened Def Con from 0.00115941 to 0.00115941
Heightened Def Con from 0.00115943 to 0.00115943
Heightened Def Con from 0.0011599 to 0.0011599
Heightened Def Con from 0.00115991 to 0.00115992
Heightened Def Con from 0.00116177 to 0.00116179
Heightened Def Con from 0.00116179 to 0.00116179
Heightened Def Con from 0.0011623 to 0.0011623
Heightened Def Con from 0.00116232 to 0.00116233
Heightened Def Con from 0.00116482 to 0.00116482
Heightened Def Con from 0.00116482 to 0.00116482
Heightened Def Con from 0.00116532 to 0.00116532
Heightened Def Con from 0.00116534 to 0.00116535
Heightened Def Con from 0.00116729 to 0.00116729
Heightened Def Con from 0.00116729 to 0.00116732
Heightened Def Con from 0.00116732 to 0.00116732
Heightened Def Con from 0.00116737 to 0.00116737
Heightened Def Con from 0.00116778 to 0.00116778
Heightened Def Con from 0.0011678 to 0.00116781
Heightened Def Con from 0.00117027 to 0.00117028
Heightened Def Con from 0.00117028 to 0.00117028
Heightened Def Con from 0.00117081 to 0.00117081
Heightened Def Con from 0.00117083 to 0.00117084
Heightened Def Con from 0.00117304 to 0.00117304
Heightened Def Con from 0.00117304 to 0.00117304
Heightened Def Con from 0.00117306 to 0.00117306
Heightened Def Con from 0.00117348 to 0.00117348
[...]
Heightened Def Con from 0.00434519 to 0.0043452
Heightened Def Con from 0.00434522 to 0.00434522
Heightened Def Con from 0.00434579 to 0.00434579
Heightened Def Con from 0.0043458 to 0.00434581
Heightened Def Con from 0.00434773 to 0.00434774
Heightened Def Con from 0.00434776 to 0.00434776
Heightened Def Con from 0.00434817 to 0.00434817
Heightened Def Con from 0.0043482 to 0.0043482
Heightened Def Con from 0.00434821 to 0.00434822
Heightened Def Con from 0.00435022 to 0.00435022
Heightened Def Con from 0.00435024 to 0.00435024
Heightened Def Con from 0.00435025 to 0.00435025
Heightened Def Con from 0.00435082 to 0.00435082
Heightened Def Con from 0.00435083 to 0.00435084
Heightened Def Con from 0.00435272 to 0.00435272
Heightened Def Con from 0.00435272 to 0.00435272
Heightened Def Con from 0.00435274 to 0.00435274
Heightened Def Con from 0.00435319 to 0.00435319
Heightened Def Con from 0.0043532 to 0.00435321
Heightened Def Con from 0.00435519 to 0.00435521
Heightened Def Con from 0.00435521 to 0.00435521
Heightened Def Con from 0.0043558 to 0.0043558
Heightened Def Con from 0.00435581 to 0.00435582
Heightened Def Con from 0.00435769 to 0.00435769
Heightened Def Con from 0.00435769 to 0.00435769
Heightened Def Con from 0.00435814 to 0.00435814
Heightened Def Con from 0.00435815 to 0.00435816
Heightened Def Con from 0.00436009 to 0.00436011
Heightened Def Con from 0.00436011 to 0.00436011
Heightened Def Con from 0.00436071 to 0.00436071
Heightened Def Con from 0.00436072 to 0.00436073
Heightened Def Con from 0.00436254 to 0.00436254
Heightened Def Con from 0.00436301 to 0.00436301
Heightened Def Con from 0.00436303 to 0.00436304
Heightened Def Con from 0.00436494 to 0.00436494
Heightened Def Con from 0.00436494 to 0.00436494
Heightened Def Con from 0.00436497 to 0.00436497
Heightened Def Con from 0.00436555 to 0.00436555
Heightened Def Con from 0.00436556 to 0.00436557
Heightened Def Con from 0.00436726 to 0.00436726
Heightened Def Con from 0.00436728 to 0.00436728
Heightened Def Con from 0.00436728 to 0.00436728
Heightened Def Con from 0.0043673 to 0.0043673
Heightened Def Con from 0.00436781 to 0.00436781
Heightened Def Con from 0.00436782 to 0.00436783
Heightened Def Con from 0.0043698 to 0.00436982
Heightened Def Con from 0.00436983 to 0.00436983
Heightened Def Con from 0.0043704 to 0.0043704
Heightened Def Con from 0.00437041 to 0.00437042
Heightened Def Con from 0.00437203 to 0.00437203
Heightened Def Con from 0.00437206 to 0.00437206
Heightened Def Con from 0.00437263 to 0.00437263
Heightened Def Con from 0.00437265 to 0.00437266
Heightened Def Con from 0.00437467 to 0.00437468
Heightened Def Con from 0.00437468 to 0.00437468
Heightened Def Con from 0.00437524 to 0.00437524
Heightened Def Con from 0.00437525 to 0.00437526
Heightened Def Con from 0.00437681 to 0.00437681
Heightened Def Con from 0.00437682 to 0.00437682
Heightened Def Con from 0.00437741 to 0.00437741
Heightened Def Con from 0.00437742 to 0.00437743
Heightened Def Con from 0.00437939 to 0.00437939
Heightened Def Con from 0.00437993 to 0.00437993
Heightened Def Con from 0.00437994 to 0.00437995
Heightened Def Con from 0.00438143 to 0.00438143
Heightened Def Con from 0.00438143 to 0.00438143
Heightened Def Con from 0.00438145 to 0.00438145
Heightened Def Con from 0.00438206 to 0.00438206
Heightened Def Con from 0.00438207 to 0.00438208
Heightened Def Con from 0.0043838 to 0.0043838
Heightened Def Con from 0.0043838 to 0.0043838
Heightened Def Con from 0.0043838 to 0.0043838
Heightened Def Con from 0.00438392 to 0.00438392
Heightened Def Con from 0.00438446 to 0.00438446
Heightened Def Con from 0.00438447 to 0.00438448
Heightened Def Con from 0.00438602 to 0.00438602
Heightened Def Con from 0.00438605 to 0.00438605
Heightened Def Con from 0.00438669 to 0.00438669
Heightened Def Con from 0.0043867 to 0.00438671
Heightened Def Con from 0.00438844 to 0.00438844
Heightened Def Con from 0.00438898 to 0.00438898
Heightened Def Con from 0.00438899 to 0.004389
Heightened Def Con from 0.00439061 to 0.00439061
Heightened Def Con from 0.00439124 to 0.00439124
Heightened Def Con from 0.00439126 to 0.00439126
Heightened Def Con from 0.00439128 to 0.00439129
Heightened Def Con from 0.00439285 to 0.00439285
Heightened Def Con from 0.00439287 to 0.00439287
Heightened Def Con from 0.0043934 to 0.0043934
Heightened Def Con from 0.00439341 to 0.00439342
Heightened Def Con from 0.00439504 to 0.00439504
Heightened Def Con from 0.00439507 to 0.00439507
Heightened Def Con from 0.00439571 to 0.00439571
Heightened Def Con from 0.00439574 to 0.00439574
Heightened Def Con from 0.00439575 to 0.00439576
Heightened Def Con from 0.00439726 to 0.00439726
Heightened Def Con from 0.00439729 to 0.00439729
Heightened Def Con from 0.00439788 to 0.00439788
Heightened Def Con from 0.00439789 to 0.0043979
Heightened Def Con from 0.00439958 to 0.00439958
Heightened Def Con from 0.00440018 to 0.00440018
Heightened Def Con from 0.0044002 to 0.00440021
Heightened Def Con from 0.00440149 to 0.00440149
Heightened Def Con from 0.00440149 to 0.00440149
Heightened Def Con from 0.00440149 to 0.00440149
Heightened Def Con from 0.00440154 to 0.00440154
Heightened Def Con from 0.00440157 to 0.00440157
Heightened Def Con from 0.00440221 to 0.00440221
Heightened Def Con from 0.00440223 to 0.00440224
Heightened Def Con from 0.00440387 to 0.00440387
Heightened Def Con from 0.00440387 to 0.0044039
Heightened Def Con from 0.0044039 to 0.0044039
Heightened Def Con from 0.00440449 to 0.00440449
Heightened Def Con from 0.0044045 to 0.00440451
Heightened Def Con from 0.00440577 ++++to 0.00440577
Heightened Def Con from 0.00440577 ++++to 0.00440577
Heightened Def Con from 0.00440589 to 0.00440589
Heightened Def Con from 0.00440592 to 0.00440592
Heightened Def Con from 0.0044066 to 0.0044066
Heightened Def Con from 0.00440662 to 0.00440663
Heightened Def Con from 0.00440812 to 0.00440812
Heightened Def Con from 0.00440814 to 0.00440814
Heightened Def Con from 0.00440815 to 0.00440815
Heightened Def Con from 0.00440872 to 0.00440872
Heightened Def Con from 0.00440873 to 0.00440874
Heightened Def Con from 0.00441025 to 0.00441025
Heightened Def Con from 0.00441025 to 0.00441025
Heightened Def Con from 0.00441098 to 0.00441098
Heightened Def Con from 0.004411 to 0.00441101
Heightened Def Con from 0.00441244 to 0.00441244
Heightened Def Con from 0.00441304 to 0.00441304
Heightened Def Con from 0.00441305 to 0.00441306
Heightened Def Con from 0.00441457 to 0.00441457
Heightened Def Con from 0.00441457 to 0.00441457
Heightened Def Con from 0.00441519 to 0.00441519
Heightened Def Con from 0.00441522 to 0.00441522
Heightened Def Con from 0.00441523 to 0.00441524
Heightened Def Con from 0.00441651 to 0.00441653
Heightened Def Con from 0.00441719 to 0.00441719
Heightened Def Con from 0.00441719 to 0.00441719
Heightened Def Con from 0.00441721 to 0.00441722
Heightened Def Con from 0.00441865 to 0.00441865
Heightened Def Con from 0.00441865 to 0.00441865
Heightened Def Con from 0.00441875 to 0.00441875
Heightened Def Con from 0.00441938 to 0.00441938
Heightened Def Con from 0.00441939 to 0.00441939
Heightened Def Con from 0.00442058 to 0.00442058
Heightened Def Con from 0.00442058 to 0.00442058
Heightened Def Con from 0.00442058 to 0.00442058
Heightened Def Con from 0.00442075 to 0.00442075
Heightened Def Con from 0.00442148 to 0.00442148
Heightened Def Con from 0.00442148 to 0.00442148
Heightened Def Con from 0.0044215 to 0.00442151
Heightened Def Con from 0.00442286 to 0.00442286
Heightened Def Con from 0.00442289 to 0.00442289
Heightened Def Con from 0.00442349 to 0.00442349
Heightened Def Con from 0.00442349 to 0.0044235
Heightened Def Con from 0.00442351 to 0.00442352
Heightened Def Con from 0.00442493 to 0.00442494
Heightened Def Con from 0.00442569 to 0.00442569
Heightened Def Con from 0.00442569 to 0.00442569
Heightened Def Con from 0.0044257 to 0.00442571
Heightened Def Con from 0.004427 to 0.004427
Heightened Def Con from 0.004427 to 0.004427
Heightened Def Con from 0.004427 to 0.004427
Heightened Def Con from 0.00442704 to 0.00442704
Heightened Def Con from 0.00442704 to 0.00442704
Heightened Def Con from 0.00442774 to 0.00442774
Heightened Def Con from 0.00442774 to 0.00442774
Heightened Def Con from 0.00442776 to 0.00442777
Heightened Def Con from 0.00442925 to 0.00442925
Heightened Def Con from 0.00442925 to 0.00442925
Heightened Def Con from 0.00442992 to 0.00442992
Heightened Def Con from 0.00442992 to 0.00442992
Heightened Def Con from 0.00442993 to 0.00442994
Heightened Def Con from 0.00443114 to 0.00443114
Heightened Def Con from 0.00443188 to 0.00443188
Heightened Def Con from 0.00443188 to 0.00443188
Heightened Def Con from 0.00443189 to 0.0044319
Heightened Def Con from 0.00443323 to 0.00443323
Heightened Def Con from 0.00443323 +to 0.00443323
Heightened Def Con from 0.00443323 +to 0.00443323
Heightened Def Con from 0.00443323 +to 0.00443323
Heightened Def Con from 0.00443323 to 0.00443323
Heightened Def Con from 0.00443328 to 0.00443328
Heightened Def Con from 0.00443328 to 0.00443328
Heightened Def Con from 0.00443392 to 0.00443393
Heightened Def Con from 0.00443393 to 0.00443393
Heightened Def Con from 0.00443394 to 0.00443395
Heightened Def Con from 0.00443506 to 0.00443506
Heightened Def Con from 0.00443526 to 0.00443527
Heightened Def Con from 0.00443527 to 0.00443527
Heightened Def Con from 0.00443608 to 0.00443608
Heightened Def Con from 0.00443609 to 0.0044361
Heightened Def Con from 0.00443736 to 0.00443736
Heightened Def Con from 0.00443738 to 0.00443738
Heightened Def Con from 0.00443739 to 0.00443739
Heightened Def Con from 0.00443806 to 0.00443807
Heightened Def Con from 0.00443807 to 0.00443807
Heightened Def Con from 0.00443808 to 0.00443809
Heightened Def Con from 0.00443944 to 0.00443944
Heightened Def Con from 0.00444014 to 0.00444014
Heightened Def Con from 0.00444016 to 0.00444016
Heightened Def Con from 0.00444016 to 0.00444016
Heightened Def Con from 0.00444017 to 0.00444018
Heightened Def Con from 0.00444119 to 0.00444119
Heightened Def Con from 0.00444119 +to 0.00444119
Heightened Def Con from 0.00444119 to 0.00444119
Heightened Def Con from 0.00444128 to 0.00444128
Heightened Def Con from 0.0044413 to 0.0044413
Heightened Def Con from 0.0044413 to 0.0044413
Heightened Def Con from 0.00444205 to 0.00444205
Heightened Def Con from 0.00444206 to 0.00444206
Heightened Def Con from 0.00444207 to 0.00444208
Heightened Def Con from 0.00444337 to 0.00444337
Heightened Def Con from 0.0044434 to 0.0044434
Heightened Def Con from 0.00444408 to 0.00444409
Heightened Def Con from 0.00444409 to 0.00444409
Heightened Def Con from 0.0044441 to 0.00444411
Heightened Def Con from 0.00444533 to 0.00444533
Heightened Def Con from 0.00444535 to 0.00444535
Heightened Def Con from 0.00444535 to 0.00444535
Heightened Def Con from 0.00444535 to 0.00444535
Heightened Def Con from 0.00444619 to 0.00444619
Heightened Def Con from 0.0044462 to 0.00444621
Heightened Def Con from 0.00444743 to 0.00444743
Heightened Def Con from 0.00444814 to 0.00444814
Heightened Def Con from 0.00444815 to 0.00444816
Heightened Def Con from 0.00444944 to 0.00444944
Heightened Def Con from 0.00444944 to 0.00444944
Heightened Def Con from 0.0044502 to 0.0044502
Heightened Def Con from 0.0044502 to 0.0044502
Heightened Def Con from 0.00445021 to 0.00445022
Heightened Def Con from 0.00445129 to 0.00445129
Heightened Def Con from 0.00445208 to 0.00445208
Heightened Def Con from 0.00445208 to 0.00445208
Heightened Def Con from 0.00445209 to 0.0044521
Heightened Def Con from 0.00445338 to 0.00445338
Heightened Def Con from 0.0044541 to 0.0044541
Heightened Def Con from 0.00445411 to 0.00445412
Heightened Def Con from 0.0044553 to 0.0044553
Heightened Def Con from 0.0044553 to 0.0044553
Heightened Def Con from 0.00445618 to 0.00445618
Heightened Def Con from 0.00445618 to 0.00445618
Heightened Def Con from 0.00445735 to 0.00445735
Heightened Def Con from 0.00445738 to 0.00445738
Heightened Def Con from 0.00445812 to 0.00445812
Heightened Def Con from 0.00445812 to 0.00445812
Heightened Def Con from 0.00445938 to 0.00445938
Heightened Def Con from 0.00445938 to 0.0044594
Heightened Def Con from 0.00446017 to 0.00446017
Heightened Def Con from 0.00446017 to 0.00446017
Heightened Def Con from 0.00446018 to 0.00446019
Heightened Def Con from 0.00446109 ++++to 0.00446109
Heightened Def Con from 0.00446121 to 0.00446121
Heightened Def Con from 0.00446121 to 0.00446124
Heightened Def Con from 0.00446203 to 0.00446203
Heightened Def Con from 0.00446203 to 0.00446203
Heightened Def Con from 0.00446326 to 0.00446326
Heightened Def Con from 0.00446326 to 0.00446326
Heightened Def Con from 0.00446326 to 0.00446326
Heightened Def Con from 0.00446401 to 0.00446402
Heightened Def Con from 0.00446402 to 0.00446402
Heightened Def Con from 0.0044652 to 0.0044652
Heightened Def Con from 0.0044652 to 0.00446522
Heightened Def Con from 0.00446547 to 0.00446547
Heightened Def Con from 0.00446547 to 0.00446547
Heightened Def Con from 0.00446548 to 0.00446549
Heightened Def Con from 0.00446607 to 0.00446607
Heightened Def Con from 0.00446725 to 0.00446725
Heightened Def Con from 0.00446865 to 0.00446865
Heightened Def Con from 0.00446868 to 0.00446868
Heightened Def Con from 0.00446868 to 0.0044687
Heightened Def Con from 0.00446946 to 0.00446947
Heightened Def Con from 0.00446947 to 0.00446947
Heightened Def Con from 0.00447055 to 0.00447055
Heightened Def Con from 0.00447055 to 0.00447057
Heightened Def Con from 0.00447146 to 0.00447147
Heightened Def Con from 0.00447147 to 0.00447147
Heightened Def Con from 0.00447254 to 0.00447254
Heightened Def Con from 0.00447254 to 0.00447254
Heightened Def Con from 0.00447254 to 0.00447254
Heightened Def Con from 0.00447254 to 0.00447254
Heightened Def Con from 0.00447257 to 0.00447257
Heightened Def Con from 0.00447333 to 0.00447333
Heightened Def Con from 0.00447446 to 0.00447446
Heightened Def Con from 0.00447533 to 0.00447534
Heightened Def Con from 0.00447534 to 0.00447534
Heightened Def Con from 0.00447631 to 0.00447631
Heightened Def Con from 0.00447631 to 0.00447631
Heightened Def Con from 0.00447634 to 0.00447634
Heightened Def Con from 0.00447722 to 0.00447722
Heightened Def Con from 0.0044784 to 0.0044784
Heightened Def Con from 0.0044784 to 0.00447842
Heightened Def Con from 0.00447924 to 0.00447924
Heightened Def Con from 0.00447924 to 0.00447924
Heightened Def Con from 0.00448029 to 0.00448029
Heightened Def Con from 0.00448032 to 0.00448032
Heightened Def Con from 0.00448059 to 0.00448059
Heightened Def Con from 0.0044806 to 0.00448061
Heightened Def Con from 0.00448115 to 0.00448115
Heightened Def Con from 0.00448115 to 0.00448118
Heightened Def Con from 0.00448242 to 0.00448242
Heightened Def Con from 0.00448365 to 0.00448365
Heightened Def Con from 0.00448365 to 0.00448365
Heightened Def Con from 0.00448365 to 0.00448365
Heightened Def Con from 0.00448365 to 0.00448365
Heightened Def Con from 0.00448372 to 0.00448372
Heightened Def Con from 0.00448375 to 0.00448375
Heightened Def Con from 0.00448462 to 0.00448462
Heightened Def Con from 0.00448562 to 0.00448562
Heightened Def Con from 0.00448562 to 0.00448564
Heightened Def Con from 0.0044866 to 0.0044866
Heightened Def Con from 0.00448762 to 0.00448762
Heightened Def Con from 0.00448843 to 0.00448843
Heightened Def Con from 0.00448947 to 0.00448947
Heightened Def Con from 0.00448978 to 0.00448979
Heightened Def Con from 0.00448979 to 0.00448979
Heightened Def Con from 0.0044898 to 0.0044898
Heightened Def Con from 0.00448993 to 0.00448993
Heightened Def Con from 0.00449002 to 0.00449002
Heightened Def Con from 0.00449002 to 0.00449002
Heightened Def Con from 0.00449003 to 0.00449004
Heightened Def Con from 0.00449042 to 0.00449042
Heightened Def Con from 0.00449153 to 0.00449153
Heightened Def Con from 0.00449256 to 0.00449256
Heightened Def Con from 0.00449259 to 0.00449259
Heightened Def Con from 0.00449342 to 0.00449342
Heightened Def Con from 0.00449445 to 0.00449445
Heightened Def Con from 0.00449475 to 0.00449475
Heightened Def Con from 0.00449476 to 0.00449477
Heightened Def Con from 0.00449531 to 0.00449531
Heightened Def Con from 0.00449534 to 0.00449534
Heightened Def Con from 0.00449534 to 0.00449536
Heightened Def Con from 0.00449668 to 0.00449668
Heightened Def Con from 0.00449772 to 0.00449772
Heightened Def Con from 0.00449775 to 0.00449775
Heightened Def Con from 0.00449861 to 0.00449861
Heightened Def Con from 0.00449961 to 0.00449961
Heightened Def Con from 0.00449986 to 0.00449987
Heightened Def Con from 0.00449987 to 0.00449987
Heightened Def Con from 0.00450043 to 0.00450043
Heightened Def Con from 0.00450043 to 0.00450045
Heightened Def Con from 0.00450184 to 0.00450184
Heightened Def Con from 0.00450289 to 0.00450289
Heightened Def Con from 0.00450292 to 0.00450292
Heightened Def Con from 0.00450382 to 0.00450382
Heightened Def Con from 0.0045048 to 0.0045048
Heightened Def Con from 0.00450502 to 0.00450502
Heightened Def Con from 0.00450502 to 0.00450502
Heightened Def Con from 0.00450555 to 0.00450555
Heightened Def Con from 0.00450705 to 0.00450705
Heightened Def Con from 0.00450809 to 0.00450809
Heightened Def Con from 0.00450812 to 0.00450812
Heightened Def Con from 0.00450814 to 0.00450814
Heightened Def Con from 0.00450909 to 0.00450909
Heightened Def Con from 0.00451005 to 0.00451005
Heightened Def Con from 0.00451024 to 0.00451024
Heightened Def Con from 0.00451074 to 0.00451074
Heightened Def Con from 0.00451231 to 0.00451231
Heightened Def Con from 0.00451232 to 0.00451232
Heightened Def Con from 0.00451335 to 0.00451335
Heightened Def Con from 0.0045134 to 0.0045134
Heightened Def Con from 0.00451343 to 0.00451343
Heightened Def Con from 0.00451444 to 0.00451444
Heightened Def Con from 0.00451532 to 0.00451534
Heightened Def Con from 0.00451534 to 0.00451534
Heightened Def Con from 0.00451555 to 0.00451556
Heightened Def Con from 0.00451556 to 0.00451556
Heightened Def Con from 0.00451604 to 0.00451604
Heightened Def Con from 0.00451762 to 0.00451762
Heightened Def Con from 0.00451762 to 0.00451764
Heightened Def Con from 0.00451875 to 0.00451875
Heightened Def Con from 0.00451907 to 0.00451907
Heightened Def Con from 0.00451967 to 0.00451967
Heightened Def Con from 0.00452124 to 0.00452124
Heightened Def Con from 0.0045221 to 0.0045221
Heightened Def Con from 0.00452214 to 0.00452214
Heightened Def Con from 0.00452214 to 0.00452214
Heightened Def Con from 0.00452316 to 0.00452316
Heightened Def Con from 0.00452317 to 0.00452318
Heightened Def Con from 0.00452407 +to 0.00452407
Heightened Def Con from 0.00452407 to 0.00452407
Heightened Def Con from 0.0045241 to 0.0045241
Heightened Def Con from 0.00452437 to 0.00452437
Heightened Def Con from 0.00452489 to 0.00452489
Heightened Def Con from 0.00452492 to 0.00452492
Heightened Def Con from 0.00452656 to 0.00452656
Heightened Def Con from 0.00452656 to 0.00452658
Heightened Def Con from 0.00452742 to 0.00452742
Heightened Def Con from 0.00452744 to 0.00452745
Heightened Def Con from 0.00452745 to 0.00452745
Heightened Def Con from 0.00452845 to 0.00452845
Heightened Def Con from 0.00452845 to 0.00452847
Heightened Def Con from 0.00452933 to 0.00452933
Heightened Def Con from 0.00452933 to 0.00452933
Heightened Def Con from 0.00452958 to 0.00452958
Heightened Def Con from 0.00453009 to 0.00453009
Heightened Def Con from 0.00453181 to 0.00453181
Heightened Def Con from 0.00453215 to 0.00453215

Date: Mon Mar 30 20:46:45 2020
Total elapsed time: 1048.672 seconds.

tnom = 27
temp = 27
method = modified trap
totiter = 24812329
traniter = 24812329
tranpoints = 7577203
accept = 5507711
rejected = 2077750
matrix size = 278
fillins = 227
solver = Alternate
Thread vector: 28.9/17.5[5] 7.9/5.2[5] 9.1/4.6[5] 2.1/2.6[1]  2592/500
Matrix Compiler1: 29.07 KB object code size  5.5/3.3/[1.8]
Matrix Compiler2: 26.87 KB object code size  2.6/3.0/[1.5]

