Circuit: * C:\Users\emanu\Desktop\DCE-GRUPO10\DISTORSION\OTRAS\LAZO CERRADO\Dist_20k_cl.asc

Questionable use of curly braces in "b§e_abmgate yint 0 v={if(v(a)>{{vthresh}},{{vss}},{{vdd}})}"
    Error: undefined symbol in: "if([v](a)>((vthresh)),((vss)),((vdd)))"
Questionable use of curly braces in "b§e_abmgate yint 0 v={if(v(a)>{{vthresh}}&v(b)>{{vthresh}},{{vdd}},{{vss}})}"
    Error: undefined symbol in: "if([v](a)>((vthresh))&v(b)>((vthresh)),((vdd)),((vss)))"
Questionable use of curly braces in "b§e_abmgate yint 0 v={if(v(a)>{{vthresh}}&v(b)>{{vthresh}},{{vdd}},{{vss}})}"
    Error: undefined symbol in: "if([v](a)>((vthresh))&v(b)>((vthresh)),((vdd)),((vss)))"
Questionable use of curly braces in "b§e_abmgate yint 0 v={if(v(a)>{{vthresh}},{{vss}},{{vdd}})}"
    Error: undefined symbol in: "if([v](a)>((vthresh)),((vss)),((vdd)))"
Questionable use of curly braces in "b§e_abmgate yint 0 v={if(v(a)>{{vthresh}}&v(b)>{{vthresh}},{{vdd}},{{vss}})}"
    Error: undefined symbol in: "if([v](a)>((vthresh))&v(b)>((vthresh)),((vdd)),((vss)))"
Questionable use of curly braces in "b§e_abmgate yint 0 v={if(v(a)>{{vthresh}},{{vss}},{{vdd}})}"
    Error: undefined symbol in: "if([v](a)>((vthresh)),((vss)),((vdd)))"
WARNING: Less than two connections to node -5V.  This node is used by V2.
WARNING: Less than two connections to node NC_03.  This node is used by V:U4:_V11.
WARNING: Less than two connections to node NC_02.  This node is used by V:U4:_V12.
WARNING: Less than two connections to node NC_01.  This node is used by V:U4:_V13.
WARNING: Less than two connections to node NC_04.  This node is used by V:U4:_V14.
Instance "m:u4:_m12:1": Length shorter than recommended for a level 1 MOSFET.
Instance "m:u4:_m14:1": Length shorter than recommended for a level 1 MOSFET.
Instance "m:u4:_m15:1": Length shorter than recommended for a level 1 MOSFET.
Instance "m:u4:_m13:1": Length shorter than recommended for a level 1 MOSFET.
Instance "m:m2:2": Length shorter than recommended for a level 3 MOSFET.
Instance "m:m2:1": Length shorter than recommended for a level 3 MOSFET.
Instance "m:m1:2": Length shorter than recommended for a level 3 MOSFET.
Instance "m:m1:1": Length shorter than recommended for a level 3 MOSFET.
Per .tran options, skipping operating point for transient analysis.
Ignoring empty pin current: Ix(u4:vcci_1)
Changing Tseed to 9.76563e-11
Changing Tseed to 9.76562e-13
Changing Tseed to 9.76562e-10
Changing Tseed to 9.76563e-14
Changing Tseed to 9.76562e-09
Changing Tseed to 9.76562e-15
Changing Tseed to 9.76562e-08
Changing Tseed to 9.76562e-16
Changing Tseed to 9.76563e-07
Changing Tseed to 9.76562e-17
Changing Tseed to 9.76562e-06
Changing Tseed to 9.76562e-18
Heightened Def Con from 0 Changing Tseed to 1e-09
Changing Tseed to 1e-11
Changing Tseed to 1e-08
Changing Tseed to 1e-12
Changing Tseed to 1e-07
Changing Tseed to 1e-13
Changing Tseed to 1e-06
Changing Tseed to 1e-14
Changing Tseed to 1e-05
Changing Tseed to 1e-15
Changing Tseed to 0.0001
Changing Tseed to 1e-16
+Changing Tseed to 1e-09
Changing Tseed to 1e-11
Changing Tseed to 1e-08
Changing Tseed to 1e-12
Changing Tseed to 1e-07
Changing Tseed to 1e-13
Changing Tseed to 1e-06
Changing Tseed to 1e-14
Changing Tseed to 1e-05
Changing Tseed to 1e-15
Changing Tseed to 0.0001
Changing Tseed to 1e-16
+Changing Tseed to 1e-09
Changing Tseed to 1e-11
Changing Tseed to 1e-08
Changing Tseed to 1e-12
Changing Tseed to 1e-07
Changing Tseed to 1e-13
Changing Tseed to 1e-06
Changing Tseed to 1e-14
Changing Tseed to 1e-05
Changing Tseed to 1e-15
Changing Tseed to 0.0001
Changing Tseed to 1e-16
+Changing Tseed to 1e-09
Changing Tseed to 1e-11
Changing Tseed to 1e-08
Changing Tseed to 1e-12
Changing Tseed to 1e-07
Changing Tseed to 1e-13
Changing Tseed to 1e-06
Changing Tseed to 1e-14
Changing Tseed to 1e-05
Changing Tseed to 1e-15
Changing Tseed to 0.0001
Changing Tseed to 1e-16
+Changing Tseed to 1e-09
Changing Tseed to 1e-11
Changing Tseed to 1e-08
Changing Tseed to 1e-12
Changing Tseed to 1e-07
Changing Tseed to 1e-13
Changing Tseed to 1e-06
Changing Tseed to 1e-14
Changing Tseed to 1e-05
Changing Tseed to 1e-15
Changing Tseed to 0.0001
Changing Tseed to 1e-16
+Changing Tseed to 1e-09
Changing Tseed to 1e-11
Changing Tseed to 1e-08
Changing Tseed to 1e-12
Changing Tseed to 1e-07
Changing Tseed to 1e-13
Changing Tseed to 1e-06
Changing Tseed to 1e-14
Changing Tseed to 1e-05
Changing Tseed to 1e-15
Changing Tseed to 0.0001
Changing Tseed to 1e-16
+Changing Tseed to 1e-09
Changing Tseed to 1e-11
Changing Tseed to 1e-08
Changing Tseed to 1e-12
Changing Tseed to 1e-07
Changing Tseed to 1e-13
Changing Tseed to 1e-06
Changing Tseed to 1e-14
Changing Tseed to 1e-05
Changing Tseed to 1e-15
Changing Tseed to 0.0001
Changing Tseed to 1e-16
+Changing Tseed to 1e-09
Changing Tseed to 1e-11
Changing Tseed to 1e-08
Changing Tseed to 1e-12
Changing Tseed to 1e-07
Changing Tseed to 1e-13
Changing Tseed to 1e-06
Changing Tseed to 1e-14
Changing Tseed to 1e-05
Changing Tseed to 1e-15
Changing Tseed to 0.0001
Changing Tseed to 1e-16
+Changing Tseed to 1e-09
Changing Tseed to 1e-11
Changing Tseed to 1e-08
Changing Tseed to 1e-12
Changing Tseed to 1e-07
Changing Tseed to 1e-13
Changing Tseed to 1e-06
Changing Tseed to 1e-14
Changing Tseed to 1e-05
Changing Tseed to 1e-15
Changing Tseed to 0.0001
Changing Tseed to 1e-16
+Changing Tseed to 1e-09
Changing Tseed to 1e-11
Changing Tseed to 1e-08
Changing Tseed to 1e-12
Changing Tseed to 1e-07
Changing Tseed to 1e-13
Changing Tseed to 1e-06
Changing Tseed to 1e-14
Changing Tseed to 1e-05
Changing Tseed to 1e-15
Changing Tseed to 0.0001
Changing Tseed to 1e-16
+Changing Tseed to 1e-09
Changing Tseed to 1e-11
Changing Tseed to 1e-08
Changing Tseed to 1e-12
Changing Tseed to 1e-07
Changing Tseed to 1e-13
Changing Tseed to 1e-06
Changing Tseed to 1e-14
Changing Tseed to 1e-05
Changing Tseed to 1e-15
Changing Tseed to 0.0001
Changing Tseed to 1e-16
+Changing Tseed to 1e-09
Changing Tseed to 1e-11
Changing Tseed to 1e-08
Changing Tseed to 1e-12
Changing Tseed to 1e-07
Changing Tseed to 1e-13
Changing Tseed to 1e-06
Changing Tseed to 1e-14
Changing Tseed to 1e-05
Changing Tseed to 1e-15
Changing Tseed to 0.0001
Changing Tseed to 1e-16
+Changing Tseed to 1e-09
Changing Tseed to 1e-11
Changing Tseed to 1e-08
Changing Tseed to 1e-12
Changing Tseed to 1e-07
Changing Tseed to 1e-13
Changing Tseed to 1e-06
Changing Tseed to 1e-14
Changing Tseed to 1e-05
Changing Tseed to 1e-15
Changing Tseed to 0.0001
Changing Tseed to 1e-16
+Changing Tseed to 1e-09
Changing Tseed to 1e-11
Changing Tseed to 1e-08
Changing Tseed to 1e-12
Changing Tseed to 1e-07
Changing Tseed to 1e-13
Changing Tseed to 1e-06
Changing Tseed to 1e-14
Changing Tseed to 1e-05
Changing Tseed to 1e-15
Changing Tseed to 0.0001
Changing Tseed to 1e-16
+Changing Tseed to 1e-09
Changing Tseed to 1e-11
Changing Tseed to 1e-08
Changing Tseed to 1e-12
Changing Tseed to 1e-07
Changing Tseed to 1e-13
Changing Tseed to 1e-06
Changing Tseed to 1e-14
Changing Tseed to 1e-05
Changing Tseed to 1e-15
Changing Tseed to 0.0001
Changing Tseed to 1e-16
+Changing Tseed to 1e-09
Changing Tseed to 1e-11
Changing Tseed to 1e-08
Changing Tseed to 1e-12
Changing Tseed to 1e-07
Changing Tseed to 1e-13
Changing Tseed to 1e-06
Changing Tseed to 1e-14
Changing Tseed to 1e-05
Changing Tseed to 1e-15
Changing Tseed to 0.0001
Changing Tseed to 1e-16
+Changing Tseed to 1e-09
Changing Tseed to 1e-11
Changing Tseed to 1e-08
Changing Tseed to 1e-12
Changing Tseed to 1e-07
Changing Tseed to 1e-13
Changing Tseed to 1e-06
Changing Tseed to 1e-14
Changing Tseed to 1e-05
Changing Tseed to 1e-15
Changing Tseed to 0.0001
Changing Tseed to 1e-16
+Changing Tseed to 1e-09
Changing Tseed to 1e-11
Changing Tseed to 1e-08
Changing Tseed to 1e-12
Changing Tseed to 1e-07
Changing Tseed to 1e-13
Changing Tseed to 1e-06
Changing Tseed to 1e-14
Changing Tseed to 1e-05
Changing Tseed to 1e-15
Changing Tseed to 0.0001
Changing Tseed to 1e-16
+Changing Tseed to 1e-09
Changing Tseed to 1e-11
Changing Tseed to 1e-08
Changing Tseed to 1e-12
Changing Tseed to 1e-07
Changing Tseed to 1e-13
Changing Tseed to 1e-06
Changing Tseed to 1e-14
Changing Tseed to 1e-05
Changing Tseed to 1e-15
Changing Tseed to 0.0001
Changing Tseed to 1e-16
+Changing Tseed to 1e-09
Changing Tseed to 1e-11
Changing Tseed to 1e-08
Changing Tseed to 1e-12
Changing Tseed to 1e-07
Changing Tseed to 1e-13
Changing Tseed to 1e-06
Changing Tseed to 1e-14
Changing Tseed to 1e-05
Changing Tseed to 1e-15
Changing Tseed to 0.0001
Changing Tseed to 1e-16
+Changing Tseed to 1e-09
Changing Tseed to 1e-11
Changing Tseed to 1e-08
Changing Tseed to 1e-12
Changing Tseed to 1e-07
Changing Tseed to 1e-13
Changing Tseed to 1e-06
Changing Tseed to 1e-14
Changing Tseed to 1e-05
Changing Tseed to 1e-15
Changing Tseed to 0.0001
Changing Tseed to 1e-16
+Changing Tseed to 1e-09
Changing Tseed to 1e-11
Changing Tseed to 1e-08
Changing Tseed to 1e-12
Changing Tseed to 1e-07
Changing Tseed to 1e-13
Changing Tseed to 1e-06
Changing Tseed to 1e-14
Changing Tseed to 1e-05
Changing Tseed to 1e-15
Changing Tseed to 0.0001
Changing Tseed to 1e-16
+Changing Tseed to 1e-09
Changing Tseed to 1e-11
Changing Tseed to 1e-08
Changing Tseed to 1e-12
Changing Tseed to 1e-07
Changing Tseed to 1e-13
Changing Tseed to 1e-06
Changing Tseed to 1e-14
Changing Tseed to 1e-05
Changing Tseed to 1e-15
Changing Tseed to 0.0001
Changing Tseed to 1e-16
+Changing Tseed to 1e-09
Changing Tseed to 1e-11
Changing Tseed to 1e-08
Changing Tseed to 1e-12
Changing Tseed to 1e-07
Changing Tseed to 1e-13
Changing Tseed to 1e-06
Changing Tseed to 1e-14
Changing Tseed to 1e-05
Changing Tseed to 1e-15
Changing Tseed to 0.0001
Changing Tseed to 1e-16
+Changing Tseed to 1e-09
Changing Tseed to 1e-11
Changing Tseed to 1e-08
Changing Tseed to 1e-12
Changing Tseed to 1e-07
Changing Tseed to 1e-13
Changing Tseed to 1e-06
Changing Tseed to 1e-14
Changing Tseed to 1e-05
Changing Tseed to 1e-15
Changing Tseed to 0.0001
Changing Tseed to 1e-16
+Changing Tseed to 1e-09
Changing Tseed to 1e-11
Changing Tseed to 1e-08
Changing Tseed to 1e-12
Changing Tseed to 1e-07
Changing Tseed to 1e-13
to 1.125e-13
Heightened Def Con from 1.125e-13 +++++++++++++++++++++++to 1.76906e-11
Heightened Def Con from 1.76906e-11 ++++++++++++++++++++to 1.89566e-10
Heightened Def Con from 7.99095e-10 to 7.99095e-10
Heightened Def Con from 7.99095e-10 +to 7.99095e-10
Heightened Def Con from 7.99095e-10 +to 7.99095e-10
Heightened Def Con from 7.99095e-10 ++to 7.99095e-10
Heightened Def Con from 7.99095e-10 +to 7.99095e-10
Heightened Def Con from 7.99095e-10 +++to 7.99095e-10
Heightened Def Con from 5.00112e-05 to 5.00122e-05
Heightened Def Con from 5.05635e-05 to 5.05636e-05
Heightened Def Con from 5.05788e-05 to 5.05788e-05
Heightened Def Con from 5.11568e-05 to 5.11569e-05
Heightened Def Con from 5.15217e-05 to 5.15397e-05
Heightened Def Con from 5.17402e-05 to 5.17403e-05
Heightened Def Con from 5.22879e-05 to 5.22879e-05
Heightened Def Con from 5.22889e-05 to 5.23119e-05
Heightened Def Con from 5.23146e-05 to 5.23147e-05
Heightened Def Con from 5.26721e-05 to 5.26891e-05
Heightened Def Con from 5.30342e-05 to 5.30343e-05
Heightened Def Con from 5.30487e-05 ++to 5.30487e-05
Heightened Def Con from 5.30487e-05 +++to 5.30487e-05
Heightened Def Con from 5.30487e-05 ++++++++++++++++++++to 5.30487e-05
Heightened Def Con from 5.31893e-05 to 5.31893e-05
Heightened Def Con from 5.31897e-05 to 5.31927e-05
Heightened Def Con from 5.33383e-05 to 5.33383e-05
Heightened Def Con from 5.33383e-05 +++++++++++++++++to 5.33384e-05
Heightened Def Con from 5.33384e-05 +++++++++++++++++to 5.33385e-05
Heightened Def Con from 5.33385e-05 to 5.33385e-05
Heightened Def Con from 5.39835e-05 to 5.39835e-05
Heightened Def Con from 5.50182e-05 to 5.50182e-05
Heightened Def Con from 5.50182e-05 to 5.50182e-05
Heightened Def Con from 5.60464e-05 to 5.60464e-05
Heightened Def Con from 5.60464e-05 to 5.60464e-05
Heightened Def Con from 5.65616e-05 to 5.65616e-05
Heightened Def Con from 5.71803e-05 to 5.71803e-05
Heightened Def Con from 5.76803e-05 to 5.76803e-05
Heightened Def Con from 7.66271e-05 to 7.66272e-05
Heightened Def Con from 7.69056e-05 to 7.69056e-05
Heightened Def Con from 7.69056e-05 to 7.69056e-05
Heightened Def Con from 7.69057e-05 to 7.69057e-05
Heightened Def Con from 7.70523e-05 to 7.70533e-05
Heightened Def Con from 7.70786e-05 to 7.70787e-05
Heightened Def Con from 7.7095e-05 +to 7.7095e-05
Heightened Def Con from 7.75737e-05 to 7.75737e-05
Heightened Def Con from 7.75738e-05 +to 7.75738e-05
Heightened Def Con from 7.77511e-05 to 7.77513e-05
Heightened Def Con from 7.81066e-05 to 7.81276e-05
Heightened Def Con from 7.82685e-05 to 7.82687e-05
Heightened Def Con from 7.82689e-05 to 7.82909e-05
Heightened Def Con from 7.82947e-05 to 7.82948e-05
Heightened Def Con from 7.83161e-05 to 7.83161e-05
Heightened Def Con from 7.86476e-05 to 7.86686e-05
Heightened Def Con from 7.88106e-05 to 7.88106e-05
Heightened Def Con from 7.88384e-05 to 7.88385e-05
Heightened Def Con from 7.9173e-05 to 7.9173e-05
Heightened Def Con from 7.91834e-05 to 7.91984e-05
Heightened Def Con from 7.93719e-05 to 7.93721e-05
Heightened Def Con from 7.93817e-05 to 7.93928e-05
Heightened Def Con from 7.96938e-05 to 7.96938e-05
Heightened Def Con from 7.96938e-05 to 7.96938e-05
Heightened Def Con from 7.98918e-05 to 7.98919e-05
Heightened Def Con from 8.02663e-05 to 8.02663e-05
Heightened Def Con from 8.02663e-05 to 8.02663e-05
Heightened Def Con from 8.02675e-05 to 8.02675e-05
Heightened Def Con from 8.02675e-05 to 8.02675e-05
Heightened Def Con from 8.04052e-05 to 8.04054e-05
Heightened Def Con from 8.0415e-05 to 8.04251e-05
Heightened Def Con from 8.09605e-05 to 8.09605e-05
Heightened Def Con from 8.09605e-05 to 8.09605e-05
Heightened Def Con from 8.0973e-05 to 8.0973e-05
Heightened Def Con from 8.0973e-05 to 8.0973e-05
Heightened Def Con from 8.0973e-05 to 8.0973e-05
Heightened Def Con from 8.0973e-05 +++++++++++++++++++to 8.09741e-05
Heightened Def Con from 8.09744e-05 to 8.09744e-05
Heightened Def Con from 8.09744e-05 to 8.09744e-05
Heightened Def Con from 8.09748e-05 to 8.09748e-05
Heightened Def Con from 8.09764e-05 to 8.09764e-05
Heightened Def Con from 8.09764e-05 to 8.09764e-05
Heightened Def Con from 8.09764e-05 to 8.09764e-05
Heightened Def Con from 8.09837e-05 to 8.10027e-05
Heightened Def Con from 8.10714e-05 to 8.10714e-05
Heightened Def Con from 8.10965e-05 to 8.10966e-05
Heightened Def Con from 8.11062e-05 to 8.11166e-05
Heightened Def Con from 8.18359e-05 to 8.18359e-05
Heightened Def Con from 8.18359e-05 to 8.18359e-05
Heightened Def Con from 8.18359e-05 to 8.18359e-05
Heightened Def Con from 8.18359e-05 to 8.18359e-05
Heightened Def Con from 8.18359e-05 +to 8.18359e-05
Heightened Def Con from 8.18359e-05 to 8.18359e-05
Heightened Def Con from 8.18539e-05 to 8.18539e-05
Heightened Def Con from 8.18539e-05 to 8.18539e-05
Heightened Def Con from 8.19589e-05 to 8.19591e-05
Heightened Def Con from 8.19687e-05 to 8.19807e-05
Heightened Def Con from 8.19849e-05 to 8.19849e-05
Heightened Def Con from 8.27993e-05 to 8.27993e-05
Heightened Def Con from 8.27993e-05 to 8.27993e-05
Heightened Def Con from 8.27997e-05 to 8.27997e-05
Heightened Def Con from 8.28124e-05 to 8.28124e-05
Heightened Def Con from 8.28124e-05 to 8.28124e-05
Heightened Def Con from 8.28124e-05 to 8.28124e-05
Heightened Def Con from 8.28124e-05 to 8.28124e-05
Heightened Def Con from 8.28124e-05 to 8.28124e-05
Heightened Def Con from 8.28124e-05 ++++++++++++++++++++to 8.28154e-05
Heightened Def Con from 8.29183e-05 to 8.29188e-05
Heightened Def Con from 8.29441e-05 to 8.29442e-05
Heightened Def Con from 8.29539e-05 to 8.29659e-05
Heightened Def Con from 8.29747e-05 to 8.29747e-05
Heightened Def Con from 8.34348e-05 ++to 8.34348e-05
Heightened Def Con from 8.34348e-05 ++to 8.34348e-05
Heightened Def Con from 8.34348e-05 to 8.34348e-05
Heightened Def Con from 8.3439e-05 to 8.34521e-05
Heightened Def Con from 8.35696e-05 to 8.35698e-05
Heightened Def Con from 8.35794e-05 to 8.35914e-05
Heightened Def Con from 8.36009e-05 to 8.36009e-05
Heightened Def Con from 8.36009e-05 to 8.36009e-05
Heightened Def Con from 8.40253e-05 to 8.40253e-05
Heightened Def Con from 8.40409e-05 to 8.40549e-05
Heightened Def Con from 8.4176e-05 to 8.41761e-05
Heightened Def Con from 8.41859e-05 to 8.41979e-05
Heightened Def Con from 8.46061e-05 to 8.46061e-05
Heightened Def Con from 8.46173e-05 to 8.46173e-05
Heightened Def Con from 8.46173e-05 to 8.46173e-05
Heightened Def Con from 8.46173e-05 ++++to 8.46173e-05
Heightened Def Con from 8.46173e-05 +++to 8.46173e-05
Heightened Def Con from 8.46173e-05 ++to 8.46173e-05
Heightened Def Con from 8.46173e-05 to 8.46173e-05
Heightened Def Con from 8.47598e-05 to 8.476e-05
Heightened Def Con from 8.5264e-05 to 8.5264e-05
Heightened Def Con from 8.52735e-05 to 8.52735e-05
Heightened Def Con from 8.52735e-05 to 8.52735e-05
Heightened Def Con from 8.52735e-05 ++to 8.52735e-05
Heightened Def Con from 8.52735e-05 to 8.52735e-05
Heightened Def Con from 8.52735e-05 to 8.52735e-05
Heightened Def Con from 8.52747e-05 to 8.52747e-05
Heightened Def Con from 8.53793e-05 to 8.53794e-05
Heightened Def Con from 8.53891e-05 to 8.54011e-05
Heightened Def Con from 8.5411e-05 to 8.5411e-05
Heightened Def Con from 8.6865e-05 to 8.6865e-05
Heightened Def Con from 8.6865e-05 +to 8.6865e-05
Heightened Def Con from 8.68728e-05 to 8.68728e-05
Heightened Def Con from 8.68728e-05 to 8.68728e-05
Heightened Def Con from 8.68728e-05 to 8.68728e-05
Heightened Def Con from 8.68728e-05 +to 8.68728e-05
Heightened Def Con from 8.6945e-05 to 8.69452e-05
Heightened Def Con from 8.69548e-05 to 8.69668e-05
Heightened Def Con from 8.69782e-05 to 8.69782e-05
Heightened Def Con from 8.80036e-05 to 8.80036e-05
Heightened Def Con from 8.80094e-05 ++to 8.80094e-05
Heightened Def Con from 8.80094e-05 to 8.80094e-05
Heightened Def Con from 8.80094e-05 to 8.80094e-05
Heightened Def Con from 8.80104e-05 to 8.80104e-05
Heightened Def Con from 8.80104e-05 to 8.80104e-05
Heightened Def Con from 8.80104e-05 +to 8.80104e-05
Heightened Def Con from 8.80104e-05 to 8.80104e-05
Heightened Def Con from 8.80266e-05 to 8.80326e-05
Heightened Def Con from 8.8103e-05 to 8.81033e-05
Heightened Def Con from 8.81036e-05 to 8.81037e-05
Heightened Def Con from 8.81293e-05 to 8.81295e-05
Heightened Def Con from 8.81392e-05 to 8.81512e-05
Heightened Def Con from 8.81638e-05 to 8.81638e-05
Heightened Def Con from 8.81638e-05 to 8.81638e-05
Heightened Def Con from 8.81638e-05 to 8.81638e-05
Heightened Def Con from 8.81638e-05 to 8.81638e-05
Heightened Def Con from 8.86955e-05 to 8.86955e-05
Heightened Def Con from 8.87124e-05 to 8.87194e-05
Heightened Def Con from 8.87953e-05 to 8.88183e-05
Heightened Def Con from 8.88209e-05 to 8.88211e-05
Heightened Def Con from 8.88308e-05 to 8.88428e-05
Heightened Def Con from 8.88553e-05 to 8.88553e-05
Heightened Def Con from 8.93093e-05 to 8.93093e-05
Heightened Def Con from 8.93093e-05 to 8.93093e-05
Heightened Def Con from 8.93093e-05 to 8.93093e-05
Heightened Def Con from 8.93093e-05 +to 8.93093e-05
Heightened Def Con from 8.93093e-05 to 8.93093e-05
Heightened Def Con from 8.93181e-05 to 8.93341e-05
Heightened Def Con from 8.94493e-05 to 8.94494e-05
Heightened Def Con from 8.94591e-05 to 8.94711e-05
Heightened Def Con from 8.94833e-05 to 8.94833e-05
Heightened Def Con from 8.94833e-05 to 8.94833e-05
Heightened Def Con from 8.98832e-05 to 8.98832e-05
Heightened Def Con from 8.98832e-05 to 8.98832e-05
Heightened Def Con from 8.98832e-05 to 8.98832e-05
Heightened Def Con from 8.98832e-05 to 8.98832e-05
Heightened Def Con from 8.98832e-05 to 8.98832e-05
Heightened Def Con from 8.98833e-05 to 8.98833e-05
Heightened Def Con from 8.98883e-05 to 8.98883e-05
Heightened Def Con from 8.98883e-05 to 8.98883e-05
Heightened Def Con from 8.98883e-05 to 8.98883e-05
Heightened Def Con from 8.98883e-05 to 8.98883e-05
Heightened Def Con from 8.98883e-05 to 8.98883e-05
Heightened Def Con from 8.98921e-05 to 8.99081e-05
Heightened Def Con from 9.00299e-05 to 9.003e-05
Heightened Def Con from 9.00397e-05 to 9.00517e-05
Heightened Def Con from 9.09074e-05 ++++++++++++++++++++to 9.09075e-05
Heightened Def Con from 9.09075e-05 +++++++++++++++++++to 9.09075e-05
Heightened Def Con from 9.09075e-05 ++++++++++++++++++to 9.09075e-05
Heightened Def Con from 9.09121e-05 to 9.09121e-05
Heightened Def Con from 9.09121e-05 +++to 9.09121e-05
Heightened Def Con from 9.09121e-05 +to 9.09121e-05
Heightened Def Con from 9.09121e-05 to 9.09121e-05
Heightened Def Con from 9.09121e-05 ++to 9.09121e-05
Heightened Def Con from 9.09121e-05 to 9.09121e-05
Heightened Def Con from 9.10133e-05 to 9.10134e-05
Heightened Def Con from 9.10231e-05 to 9.10351e-05
Heightened Def Con from 9.22185e-05 ++to 9.22185e-05
Heightened Def Con from 9.2222e-05 to 9.2222e-05
Heightened Def Con from 9.2222e-05 +++to 9.2222e-05
Heightened Def Con from 9.2222e-05 to 9.2222e-05
Heightened Def Con from 9.22231e-05 to 9.22231e-05
Heightened Def Con from 9.22231e-05 to 9.22231e-05
Heightened Def Con from 9.22231e-05 to 9.22231e-05
Heightened Def Con from 9.22231e-05 to 9.22231e-05
Heightened Def Con from 9.22231e-05 to 9.22231e-05
Heightened Def Con from 9.22395e-05 to 9.22475e-05
Heightened Def Con from 9.23176e-05 to 9.23177e-05
Heightened Def Con from 9.23274e-05 to 9.23394e-05
Heightened Def Con from 9.29436e-05 to 9.29436e-05
Heightened Def Con from 9.29436e-05 to 9.29436e-05
Heightened Def Con from 9.29436e-05 +to 9.29436e-05
Heightened Def Con from 9.29477e-05 to 9.29477e-05
Heightened Def Con from 9.29477e-05 to 9.29477e-05
Heightened Def Con from 9.29479e-05 to 9.29479e-05
Heightened Def Con from 9.29644e-05 to 9.29724e-05
Heightened Def Con from 9.3082e-05 to 9.30821e-05
Heightened Def Con from 9.30918e-05 to 9.31038e-05
Heightened Def Con from 9.35066e-05 ++to 9.35066e-05
Heightened Def Con from 9.35066e-05 to 9.35066e-05
Heightened Def Con from 9.35078e-05 to 9.35078e-05
Heightened Def Con from 9.35078e-05 ++to 9.35078e-05
Heightened Def Con from 9.35078e-05 to 9.35078e-05
Heightened Def Con from 9.35078e-05 to 9.35078e-05
Heightened Def Con from 9.35244e-05 to 9.35325e-05
Heightened Def Con from 9.36544e-05 to 9.36545e-05
Heightened Def Con from 9.36642e-05 to 9.36762e-05
Heightened Def Con from 9.40338e-05 to 9.40338e-05
Heightened Def Con from 9.40338e-05 to 9.40338e-05
Heightened Def Con from 9.40338e-05 to 9.40338e-05
Heightened Def Con from 9.40338e-05 to 9.40338e-05
Heightened Def Con from 9.40372e-05 to 9.40522e-05
Heightened Def Con from 9.41663e-05 to 9.41673e-05
Heightened Def Con from 9.41924e-05 to 9.41925e-05
Heightened Def Con from 9.42022e-05 to 9.42142e-05
Heightened Def Con from 9.42237e-05 to 9.42237e-05
Heightened Def Con from 9.42237e-05 to 9.42237e-05
Heightened Def Con from 9.42237e-05 to 9.42237e-05
Heightened Def Con from 9.4531e-05 to 9.4531e-05
Heightened Def Con from 9.4531e-05 ++to 9.4531e-05
Heightened Def Con from 9.45338e-05 to 9.45338e-05
Heightened Def Con from 9.45338e-05 to 9.45338e-05
Heightened Def Con from 9.45342e-05 to 9.45342e-05
Heightened Def Con from 9.46814e-05 to 9.46826e-05
Heightened Def Con from 9.47077e-05 to 9.47078e-05
Heightened Def Con from 9.47175e-05 to 9.47296e-05
Heightened Def Con from 9.50107e-05 to 9.50107e-05
Heightened Def Con from 9.50107e-05 to 9.50107e-05
Heightened Def Con from 9.50107e-05 ++++++++++++++++++++to 9.50119e-05
Heightened Def Con from 9.50137e-05 to 9.50137e-05
Heightened Def Con from 9.50137e-05 +to 9.50137e-05
Heightened Def Con from 9.50137e-05 to 9.50137e-05
Heightened Def Con from 9.50137e-05 to 9.50137e-05
Heightened Def Con from 9.50137e-05 +to 9.50137e-05
Heightened Def Con from 9.50137e-05 to 9.50137e-05
Heightened Def Con from 9.50137e-05 to 9.50137e-05
Heightened Def Con from 9.51454e-05 to 9.51454e-05
Heightened Def Con from 9.51707e-05 to 9.51709e-05
Heightened Def Con from 9.51806e-05 to 9.51926e-05
Heightened Def Con from 9.52015e-05 to 9.52015e-05
Heightened Def Con from 9.56426e-05 to 9.56426e-05
Heightened Def Con from 9.56426e-05 to 9.56426e-05
Heightened Def Con from 9.56432e-05 to 9.56432e-05
Heightened Def Con from 9.56432e-05 to 9.56432e-05
Heightened Def Con from 9.57754e-05 to 9.57755e-05
Heightened Def Con from 9.57853e-05 to 9.57973e-05
Heightened Def Con from 9.62485e-05 +to 9.62485e-05
Heightened Def Con from 9.62485e-05 +to 9.62485e-05
Heightened Def Con from 9.62485e-05 to 9.62485e-05
Heightened Def Con from 9.62518e-05 to 9.62518e-05
Heightened Def Con from 9.62518e-05 to 9.62518e-05
Heightened Def Con from 9.62518e-05 to 9.62518e-05
Heightened Def Con from 9.62526e-05 to 9.62526e-05
Heightened Def Con from 9.62526e-05 to 9.62526e-05
Heightened Def Con from 9.62526e-05 to 9.62526e-05
Heightened Def Con from 9.62526e-05 to 9.62526e-05
Heightened Def Con from 9.62526e-05 to 9.62526e-05
Heightened Def Con from 9.62526e-05 to 9.62526e-05
Heightened Def Con from 9.63868e-05 to 9.63869e-05
Heightened Def Con from 9.63966e-05 to 9.64087e-05
Heightened Def Con from 9.64147e-05 ++to 9.64147e-05
Heightened Def Con from 9.68709e-05 to 9.68709e-05
Heightened Def Con from 9.68709e-05 to 9.68709e-05
Heightened Def Con from 9.68709e-05 to 9.68709e-05
Heightened Def Con from 9.68709e-05 to 9.68709e-05
Heightened Def Con from 9.68732e-05 to 9.68732e-05
Heightened Def Con from 9.68732e-05 to 9.68732e-05
Heightened Def Con from 9.68732e-05 to 9.68732e-05
Heightened Def Con from 9.68732e-05 +++++++++++++++++++to 9.68732e-05
Heightened Def Con from 9.70082e-05 to 9.70083e-05
Heightened Def Con from 9.7018e-05 to 9.703e-05
Heightened Def Con from 9.70372e-05 to 9.70372e-05
Heightened Def Con from 9.74992e-05 to 9.74992e-05
Heightened Def Con from 9.75018e-05 to 9.75018e-05
Heightened Def Con from 9.75018e-05 to 9.75018e-05
Heightened Def Con from 9.75018e-05 to 9.75018e-05
Heightened Def Con from 9.75018e-05 ++to 9.75018e-05
Heightened Def Con from 9.75018e-05 to 9.75018e-05
Heightened Def Con from 9.75042e-05 to 9.75232e-05
Heightened Def Con from 9.76446e-05 to 9.76448e-05
Heightened Def Con from 9.76545e-05 to 9.76665e-05
Heightened Def Con from 9.7939e-05 to 9.7939e-05
Heightened Def Con from 9.7939e-05 to 9.7939e-05
Heightened Def Con from 9.8112e-05 to 9.8135e-05
Heightened Def Con from 9.81377e-05 to 9.81378e-05
Heightened Def Con from 9.81476e-05 to 9.81596e-05
Heightened Def Con from 9.81643e-05 to 9.81643e-05
Heightened Def Con from 9.81643e-05 ++to 9.81643e-05
Heightened Def Con from 9.84106e-05 to 9.84106e-05
Heightened Def Con from 9.84154e-05 +to 9.84154e-05
Heightened Def Con from 9.84154e-05 to 9.84154e-05
Heightened Def Con from 9.84154e-05 to 9.84154e-05
Heightened Def Con from 9.84154e-05 to 9.84154e-05
Heightened Def Con from 9.84184e-05 to 9.84345e-05
Heightened Def Con from 9.86022e-05 to 9.86242e-05
Heightened Def Con from 9.86279e-05 to 9.8628e-05
Heightened Def Con from 9.86377e-05 to 9.86489e-05
Heightened Def Con from 9.8847e-05 to 9.8847e-05
Heightened Def Con from 9.88791e-05 to 9.88791e-05
Heightened Def Con from 9.88829e-05 to 9.88969e-05
Heightened Def Con from 9.91069e-05 to 9.9107e-05
Heightened Def Con from 9.91168e-05 to 9.91282e-05
Heightened Def Con from 9.93453e-05 to 9.93453e-05
Heightened Def Con from 9.93453e-05 to 9.93453e-05
Heightened Def Con from 9.93503e-05 to 9.93604e-05
Heightened Def Con from 9.95826e-05 to 9.95826e-05
Heightened Def Con from 9.96078e-05 to 9.96079e-05
Heightened Def Con from 9.96176e-05 to 9.96279e-05
Heightened Def Con from 9.96305e-05 to 9.96305e-05
Heightened Def Con from 9.98386e-05 to 9.98426e-05
Heightened Def Con from 0.000100123 to 0.000100123
Heightened Def Con from 0.000100133 to 0.000100143
Heightened Def Con from 0.000100143 to 0.000100143
Heightened Def Con from 0.000100143 to 0.000100143
Heightened Def Con from 0.000100143 to 0.000100143
Heightened Def Con from 0.000100143 to 0.000100143
Heightened Def Con from 0.000100143 to 0.000100143
Heightened Def Con from 0.000100143 to 0.000100143
Heightened Def Con from 0.000100143 to 0.000100143
Heightened Def Con from 0.000100361 to 0.000100361
Heightened Def Con from 0.000100418 to 0.000100433
Heightened Def Con from 0.000100619 to 0.000100619
Heightened Def Con from 0.000100629 to 0.000100637
Heightened Def Con from 0.000100924 to 0.00010094
Heightened Def Con from 0.000101129 to 0.000101129
Heightened Def Con from 0.000101139 to 0.000101146
Heightened Def Con from 0.000101448 to 0.000101452
Heightened Def Con from 0.000101659 to 0.000101659
Heightened Def Con from 0.000101669 to 0.000101675
Heightened Def Con from 0.000101994 to 0.00010201
Heightened Def Con from 0.000102179 to 0.000102179
Heightened Def Con from 0.000102207 to 0.000102207
Heightened Def Con from 0.000102541 to 0.000102541
Heightened Def Con from 0.000102868 to 0.000102868
Heightened Def Con from 0.000103182 to 0.000103182
Heightened Def Con from 0.000103888 to 0.000103888
Heightened Def Con from 0.000103888 to 0.000103888
Heightened Def Con from 0.000103888 to 0.000103888
Heightened Def Con from 0.000104393 to 0.000104393
Heightened Def Con from 0.000104393 to 0.000104393
Heightened Def Con from 0.000104729 to 0.000104729
Heightened Def Con from 0.000104729 to 0.000104729
Heightened Def Con from 0.000105238 to 0.000105238
Heightened Def Con from 0.000105238 to 0.000105238
Heightened Def Con from 0.000105239 to 0.000105239
Heightened Def Con from 0.000105401 +to 0.000105401
Heightened Def Con from 0.000105401 to 0.000105401
Heightened Def Con from 0.000105401 to 0.000105401
Heightened Def Con from 0.000105401 to 0.000105401
Heightened Def Con from 0.000105401 to 0.000105401
Heightened Def Con from 0.000105401 to 0.000105401
Heightened Def Con from 0.000105401 ++++to 0.000105401
Heightened Def Con from 0.000105401 to 0.000105401
Heightened Def Con from 0.000105747 to 0.000105747
Heightened Def Con from 0.000105747 to 0.000105747
Heightened Def Con from 0.000106407 to 0.000106407
Heightened Def Con from 0.000107785 to 0.000107785
Heightened Def Con from 0.000107913 to 0.000107913
Heightened Def Con from 0.000108296 to 0.000108296
Heightened Def Con from 0.000108296 +to 0.000108296
Heightened Def Con from 0.000108296 to 0.000108296
Heightened Def Con from 0.000109836 to 0.000109836
Heightened Def Con from 0.000109905 to 0.000109905
Heightened Def Con from 0.000109905 to 0.000109905
Heightened Def Con from 0.000124469 to 0.000124469
Heightened Def Con from 0.00012457 to 0.00012457
Heightened Def Con from 0.000125137 to 0.000125137
Heightened Def Con from 0.000125376 to 0.000125376
Heightened Def Con from 0.000126638 to 0.000126638
Heightened Def Con from 0.000126805 to 0.000126805
Heightened Def Con from 0.000126807 to 0.000126807
Heightened Def Con from 0.000126888 to 0.000126888
Heightened Def Con from 0.000127061 to 0.000127061
Heightened Def Con from 0.000127535 to 0.000127559
Heightened Def Con from 0.00012766 to 0.000127683
Heightened Def Con from 0.000127686 to 0.000127686
Heightened Def Con from 0.000127997 to 0.000127997
Heightened Def Con from 0.000127997 to 0.000127997
Heightened Def Con from 0.00012801 to 0.00012803
Heightened Def Con from 0.000128193 to 0.000128193
Heightened Def Con from 0.000128503 to 0.000128503
Heightened Def Con from 0.000128504 to 0.000128504
Heightened Def Con from 0.000128515 to 0.00012853
Heightened Def Con from 0.000128698 to 0.000128698
Heightened Def Con from 0.000128718 to 0.000128718
Heightened Def Con from 0.000128719 to 0.000128719
Heightened Def Con from 0.000129016 to 0.000129031
Heightened Def Con from 0.0001292 to 0.0001292
Heightened Def Con from 0.000129696 to 0.000129696
Heightened Def Con from 0.000129955 to 0.000129955
Heightened Def Con from 0.000130137 to 0.000130138
Heightened Def Con from 0.000130163 to 0.000130164
Heightened Def Con from 0.000130801 to 0.000130801
Heightened Def Con from 0.000130811 to 0.000130821
Heightened Def Con from 0.000130824 to 0.000130824
Heightened Def Con from 0.000131428 to 0.000131428
Heightened Def Con from 0.000131428 +++to 0.000131428
Heightened Def Con from 0.000131433 to 0.000131433
Heightened Def Con from 0.000131544 to 0.000131545
Heightened Def Con from 0.000132686 to 0.000132687
Heightened Def Con from 0.000133164 to 0.000133164
Heightened Def Con from 0.000133164 to 0.000133164
Heightened Def Con from 0.000133165 to 0.000133165
Heightened Def Con from 0.000133165 to 0.000133165
Heightened Def Con from 0.000133165 to 0.000133165
Heightened Def Con from 0.000133166 to 0.000133166
Heightened Def Con from 0.000133166 to 0.000133166
Heightened Def Con from 0.000133166 to 0.000133166
Heightened Def Con from 0.000133166 to 0.000133166
Heightened Def Con from 0.000133302 to 0.000133302
Heightened Def Con from 0.000133332 to 0.000133332
Heightened Def Con from 0.000133332 to 0.000133332
Heightened Def Con from 0.000133332 +to 0.000133332
Heightened Def Con from 0.000133332 to 0.000133332
Heightened Def Con from 0.000133759 to 0.000133759
Heightened Def Con from 0.000133759 to 0.000133759
Heightened Def Con from 0.000133759 ++++++++++++++++++to 0.000133761
Heightened Def Con from 0.000133761 to 0.000133761
Heightened Def Con from 0.000133761 to 0.000133761
Heightened Def Con from 0.000133871 to 0.000133894
Heightened Def Con from 0.000133896 to 0.000133897
Heightened Def Con from 0.000133906 to 0.000133918
Heightened Def Con from 0.000134327 to 0.000134327
Heightened Def Con from 0.000134327 to 0.000134327
Heightened Def Con from 0.000134327 to 0.000134327
Heightened Def Con from 0.000134327 to 0.000134327
Heightened Def Con from 0.000134327 +to 0.000134327
Heightened Def Con from 0.000134327 to 0.000134327
Heightened Def Con from 0.000134327 to 0.000134327
Heightened Def Con from 0.000134327 to 0.000134327
Heightened Def Con from 0.000134468 to 0.000134468
Heightened Def Con from 0.000134478 to 0.00013449
Heightened Def Con from 0.000134879 to 0.000134879
Heightened Def Con from 0.000134879 to 0.000134879
Heightened Def Con from 0.000134879 to 0.000134879
Heightened Def Con from 0.000134879 to 0.000134879
Heightened Def Con from 0.000134879 +++to 0.000134879
Heightened Def Con from 0.000134879 to 0.000134879
Heightened Def Con from 0.000134879 to 0.000134879
Heightened Def Con from 0.000134879 to 0.000134879
Heightened Def Con from 0.000134879 to 0.000134879
Heightened Def Con from 0.00013488 +to 0.00013488
Heightened Def Con from 0.00013488 to 0.00013488
Heightened Def Con from 0.00013488 to 0.00013488
Heightened Def Con from 0.00013488 to 0.00013488
Heightened Def Con from 0.00013488 to 0.00013488
Heightened Def Con from 0.000135025 to 0.000135025
Heightened Def Con from 0.000135034 to 0.000135046
Heightened Def Con from 0.00013598 to 0.00013598
Heightened Def Con from 0.00013598 to 0.00013598
Heightened Def Con from 0.000135981 +to 0.000135981
Heightened Def Con from 0.000136051 to 0.000136052
Heightened Def Con from 0.000136077 to 0.000136077
Heightened Def Con from 0.000136087 to 0.000136099
Heightened Def Con from 0.00013611 to 0.00013611
Heightened Def Con from 0.000137815 to 0.000137815
Heightened Def Con from 0.000137819 to 0.000137835
Heightened Def Con from 0.000137907 to 0.000137908
Heightened Def Con from 0.000137933 to 0.000137933
Heightened Def Con from 0.000137943 to 0.000137955
Heightened Def Con from 0.000138489 to 0.000138489
Heightened Def Con from 0.000138509 to 0.000138509
Heightened Def Con from 0.000138509 to 0.000138509
Heightened Def Con from 0.000138509 to 0.000138509
Heightened Def Con from 0.000138509 to 0.000138509
Heightened Def Con from 0.000138509 to 0.000138509
Heightened Def Con from 0.000138509 to 0.000138509
Heightened Def Con from 0.000138509 to 0.000138509
Heightened Def Con from 0.000138509 to 0.000138509
Heightened Def Con from 0.000138509 ++++++++++++++++++++to 0.00013851
Heightened Def Con from 0.00013851 to 0.00013851
Heightened Def Con from 0.00013851 to 0.00013851
Heightened Def Con from 0.000138528 to 0.000138539
Heightened Def Con from 0.000138608 to 0.000138609
Heightened Def Con from 0.000138634 to 0.000138634
Heightened Def Con from 0.000138644 to 0.000138656
Heightened Def Con from 0.000139139 to 0.000139139
Heightened Def Con from 0.000139139 +to 0.000139139
Heightened Def Con from 0.00013914 to 0.00013914
Heightened Def Con from 0.00013914 to 0.00013914
Heightened Def Con from 0.000139158 to 0.000139169
Heightened Def Con from 0.000139275 to 0.000139275
Heightened Def Con from 0.000139722 +to 0.000139722
Heightened Def Con from 0.000139722 to 0.000139722
Heightened Def Con from 0.000139723 +to 0.000139723
Heightened Def Con from 0.000139723 +to 0.000139723
Heightened Def Con from 0.000139723 to 0.000139723
Heightened Def Con from 0.000139723 to 0.000139723
Heightened Def Con from 0.000139836 to 0.000139859
Heightened Def Con from 0.000139862 to 0.000139862
Heightened Def Con from 0.000139872 to 0.000139884
Heightened Def Con from 0.000139896 to 0.000139896
Heightened Def Con from 0.000139896 to 0.000139896
Heightened Def Con from 0.000139896 to 0.000139896
Heightened Def Con from 0.000139896 to 0.000139896
Heightened Def Con from 0.000140507 to 0.000140507
Heightened Def Con from 0.000140507 to 0.000140507
Heightened Def Con from 0.000140507 to 0.000140507
Heightened Def Con from 0.000140508 to 0.000140508
Heightened Def Con from 0.000140508 to 0.000140508
Heightened Def Con from 0.000140508 to 0.000140508
Heightened Def Con from 0.000140508 to 0.000140508
Heightened Def Con from 0.000140508 to 0.000140508
Heightened Def Con from 0.000140509 to 0.000140509
Heightened Def Con from 0.000140509 to 0.000140509
Heightened Def Con from 0.000140526 to 0.000140537
Heightened Def Con from 0.000140616 to 0.000140616
Heightened Def Con from 0.000140625 to 0.000140637
Heightened Def Con from 0.00014169 to 0.00014169
Heightened Def Con from 0.00014169 ++to 0.00014169
Heightened Def Con from 0.00014169 to 0.00014169
Heightened Def Con from 0.00014169 ++to 0.00014169
Heightened Def Con from 0.00014169 +++to 0.00014169
Heightened Def Con from 0.00014169 to 0.00014169
Heightened Def Con from 0.000141691 to 0.000141691
Heightened Def Con from 0.00014171 to 0.00014172
Heightened Def Con from 0.00014179 to 0.00014179
Heightened Def Con from 0.0001418 to 0.000141812
Heightened Def Con from 0.000141823 to 0.000141823
Heightened Def Con from 0.000141823 to 0.000141823
Heightened Def Con from 0.000142765 ++to 0.000142765
Heightened Def Con from 0.000142765 to 0.000142765
Heightened Def Con from 0.000142765 ++to 0.000142765
Heightened Def Con from 0.000142765 to 0.000142765
Heightened Def Con from 0.000142766 to 0.000142766
Heightened Def Con from 0.000142766 to 0.000142766
Heightened Def Con from 0.000142783 to 0.000142794
Heightened Def Con from 0.000142897 to 0.000142898
Heightened Def Con from 0.000142907 to 0.000142919
Heightened Def Con from 0.000143317 to 0.000143317
Heightened Def Con from 0.000143336 to 0.000143336
Heightened Def Con from 0.000143336 +to 0.000143336
Heightened Def Con from 0.000143336 ++++++++++++to 0.000143336
Heightened Def Con from 0.000143481 to 0.000143481
Heightened Def Con from 0.000143491 to 0.000143503
Heightened Def Con from 0.00014387 to 0.00014387
Heightened Def Con from 0.00014387 to 0.00014387
Heightened Def Con from 0.00014387 to 0.00014387
Heightened Def Con from 0.000143872 to 0.000143872
Heightened Def Con from 0.00014389 to 0.0001439
Heightened Def Con from 0.000144029 to 0.000144029
Heightened Def Con from 0.000144377 to 0.000144377
Heightened Def Con from 0.000144377 ++to 0.000144377
Heightened Def Con from 0.000144377 +to 0.000144377
Heightened Def Con from 0.000144377 ++to 0.000144377
Heightened Def Con from 0.000144377 +to 0.000144377
Heightened Def Con from 0.000144377 to 0.000144377
Heightened Def Con from 0.000144547 to 0.000144547
Heightened Def Con from 0.000144864 to 0.000144864
Heightened Def Con from 0.000144868 to 0.000144887
Heightened Def Con from 0.000145019 to 0.000145019
Heightened Def Con from 0.000145045 to 0.000145045
Heightened Def Con from 0.000145055 to 0.000145067
Heightened Def Con from 0.000145075 +to 0.000145075
Heightened Def Con from 0.000145075 +++to 0.000145075
Heightened Def Con from 0.000145075 to 0.000145075
Heightened Def Con from 0.000145075 to 0.000145075
Heightened Def Con from 0.000145076 to 0.000145076
Heightened Def Con from 0.000145489 +++++++to 0.000145489
Heightened Def Con from 0.000145489 to 0.000145489
Heightened Def Con from 0.000145594 to 0.000145617
Heightened Def Con from 0.00014562 to 0.00014562
Heightened Def Con from 0.00014563 to 0.000145642
Heightened Def Con from 0.000145648 to 0.000145648
Heightened Def Con from 0.00014622 to 0.00014622
Heightened Def Con from 0.00014623 to 0.000146242
Heightened Def Con from 0.000146824 to 0.000146824
Heightened Def Con from 0.000146834 to 0.000146846
Heightened Def Con from 0.000147303 to 0.000147303
Heightened Def Con from 0.000147303 +++++++++++++++++++to 0.000147304
Heightened Def Con from 0.000147349 to 0.00014735
Heightened Def Con from 0.000147432 to 0.000147432
Heightened Def Con from 0.000147443 to 0.000147451
Heightened Def Con from 0.000147776 to 0.000147776
Heightened Def Con from 0.000147776 to 0.000147776
Heightened Def Con from 0.000147779 to 0.000147779
Heightened Def Con from 0.00014778 to 0.00014778
Heightened Def Con from 0.000147956 to 0.000147961
Heightened Def Con from 0.000147962 to 0.000147962
Heightened Def Con from 0.000147973 to 0.000147982
Heightened Def Con from 0.000147983 ++++++++++++++++++++to 0.000147983
Heightened Def Con from 0.000148228 to 0.000148228
Heightened Def Con from 0.000148228 to 0.00014825
Heightened Def Con from 0.000148423 to 0.000148423
Heightened Def Con from 0.000148434 to 0.000148441
Heightened Def Con from 0.000148443 to 0.000148443
Heightened Def Con from 0.000148668 to 0.000148668
Heightened Def Con from 0.000148668 to 0.000148668
Heightened Def Con from 0.000148668 to 0.000148668
Heightened Def Con from 0.000148671 to 0.000148672
Heightened Def Con from 0.000148884 to 0.000148889
Heightened Def Con from 0.00014889 to 0.00014889
Heightened Def Con from 0.000148901 to 0.00014891
Heightened Def Con from 0.00014891 ++++++++++++++++++++to 0.00014891
Heightened Def Con from 0.000149116 to 0.000149116
Heightened Def Con from 0.000149349 to 0.000149354
Heightened Def Con from 0.000149355 to 0.000149355
Heightened Def Con from 0.000149366 to 0.000149374
Heightened Def Con from 0.000149374 ++++++++++++++++++++to 0.000149374
Heightened Def Con from 0.000149374 to 0.000149374
Heightened Def Con from 0.000149569 to 0.000149569
Heightened Def Con from 0.000149574 to 0.000149591
Heightened Def Con from 0.000149841 to 0.000149846
Heightened Def Con from 0.000149848 to 0.000149848
Heightened Def Con from 0.000149858 to 0.000149864
Heightened Def Con from 0.000149865 to 0.000149865
Heightened Def Con from 0.000149865 ++to 0.000149865
Heightened Def Con from 0.000149865 to 0.000149865
Heightened Def Con from 0.000149865 to 0.000149865
Heightened Def Con from 0.000149865 to 0.000149865
Heightened Def Con from 0.000150046 to 0.000150046
Heightened Def Con from 0.000150052 to 0.000150052
Heightened Def Con from 0.000150251 to 0.000150251
Heightened Def Con from 0.000150251 to 0.000150252
Heightened Def Con from 0.000150271 to 0.000150276
Heightened Def Con from 0.000150277 to 0.000150277
Heightened Def Con from 0.000150288 to 0.000150292
Heightened Def Con from 0.000150294 to 0.000150294
Heightened Def Con from 0.000150294 +to 0.000150294
Heightened Def Con from 0.000150294 to 0.000150294
Heightened Def Con from 0.00015054 to 0.00015054
Heightened Def Con from 0.000150734 to 0.000150734
Heightened Def Con from 0.000150734 to 0.000150746
Heightened Def Con from 0.000150759 to 0.00015076
Heightened Def Con from 0.00015077 to 0.000150775
Heightened Def Con from 0.000151017 to 0.000151017
Heightened Def Con from 0.000151233 to 0.000151236
Heightened Def Con from 0.000151238 to 0.000151238
Heightened Def Con from 0.000151253 to 0.000151253
Heightened Def Con from 0.000151499 to 0.000151499
Heightened Def Con from 0.000151721 to 0.000151725
Heightened Def Con from 0.000151726 to 0.000151726
Heightened Def Con from 0.000151982 to 0.000151982
Heightened Def Con from 0.000152178 to 0.000152178
Heightened Def Con from 0.000152205 to 0.000152205
Heightened Def Con from 0.000152219 to 0.000152219
Heightened Def Con from 0.000152219 to 0.000152219
Heightened Def Con from 0.000152219 to 0.000152219
Heightened Def Con from 0.000152463 to 0.000152463
Heightened Def Con from 0.000152479 ++to 0.000152479
Heightened Def Con from 0.000152479 to 0.000152479
Heightened Def Con from 0.000152479 +to 0.000152479
Heightened Def Con from 0.000152479 to 0.000152479
Heightened Def Con from 0.000152706 to 0.000152706
Heightened Def Con from 0.000152733 to 0.000152733
Heightened Def Con from 0.000152747 to 0.000152747
Heightened Def Con from 0.000152747 ++++++++++++++++++++to 0.000152747
Heightened Def Con from 0.000152908 to 0.000152913
Heightened Def Con from 0.000152914 to 0.000152914
Heightened Def Con from 0.000153266 to 0.000153268
Heightened Def Con from 0.000153293 to 0.000153293
Heightened Def Con from 0.000153444 to 0.000153449
Heightened Def Con from 0.00015345 to 0.00015345
Heightened Def Con from 0.000153469 to 0.000153469
Heightened Def Con from 0.000153868 to 0.000153868
Heightened Def Con from 0.000153891 +to 0.000153891
Heightened Def Con from 0.000153891 to 0.000153891
Heightened Def Con from 0.000153891 ++to 0.000153891
Heightened Def Con from 0.000153891 to 0.000153891
Heightened Def Con from 0.000153891 +to 0.000153891
Heightened Def Con from 0.000153895 to 0.000153895
Heightened Def Con from 0.000154024 to 0.000154028
Heightened Def Con from 0.00015403 to 0.00015403
Heightened Def Con from 0.000154042 to 0.00015405
Heightened Def Con from 0.00015405 ++++to 0.00015405
Heightened Def Con from 0.00015405 to 0.00015405
Heightened Def Con from 0.000154574 to 0.000154574
Heightened Def Con from 0.000154574 to 0.000154574
Heightened Def Con from 0.000154574 +++to 0.000154574
Heightened Def Con from 0.000154574 to 0.000154574
Heightened Def Con from 0.000154581 to 0.000154581
Heightened Def Con from 0.000154582 to 0.000154603
Heightened Def Con from 0.000154698 to 0.000154698
Heightened Def Con from 0.000154709 to 0.000154719
Heightened Def Con from 0.00015472 to 0.00015472
Heightened Def Con from 0.00015472 to 0.00015472
Heightened Def Con from 0.00015472 to 0.00015472
Heightened Def Con from 0.00015472 to 0.00015472
Heightened Def Con from 0.00015472 to 0.00015472
Heightened Def Con from 0.000155252 to 0.000155252
Heightened Def Con from 0.000155397 to 0.000155397
Heightened Def Con from 0.000155409 to 0.000155414
Heightened Def Con from 0.000155778 to 0.000155778
Heightened Def Con from 0.000155926 to 0.000155926
Heightened Def Con from 0.000155938 to 0.000155943
Heightened Def Con from 0.000155951 ++to 0.000155951
Heightened Def Con from 0.000155951 ++++++++++++++++++++to 0.000155951
Heightened Def Con from 0.000155951 to 0.000155952
Heightened Def Con from 0.000156305 to 0.000156305
Heightened Def Con from 0.000156427 to 0.000156428
Heightened Def Con from 0.000156454 to 0.000156454
Heightened Def Con from 0.000156466 to 0.000156476
Heightened Def Con from 0.00015682 to 0.000156821
Heightened Def Con from 0.00015697 to 0.00015697
Heightened Def Con from 0.000156982 to 0.000156987
Heightened Def Con from 0.0001573 to 0.000157301
Heightened Def Con from 0.000157301 to 0.000157301
Heightened Def Con from 0.000157327 to 0.000157327
Heightened Def Con from 0.00015748 to 0.00015748
Heightened Def Con from 0.000157492 to 0.000157497
Heightened Def Con from 0.000157506 ++to 0.000157506
Heightened Def Con from 0.000157506 to 0.000157506
Heightened Def Con from 0.000157506 to 0.000157506
Heightened Def Con from 0.000157506 to 0.000157506
Heightened Def Con from 0.000157506 to 0.000157506
Heightened Def Con from 0.000157506 to 0.000157506
Heightened Def Con from 0.000158062 to 0.000158063
Heightened Def Con from 0.000158088 to 0.000158088
Heightened Def Con from 0.000158168 to 0.000158168
Heightened Def Con from 0.000158195 to 0.000158195
Heightened Def Con from 0.000158207 to 0.000158212
Heightened Def Con from 0.000159278 to 0.000159294
Heightened Def Con from 0.000159296 to 0.000159296
Heightened Def Con from 0.000159296 to 0.000159296
Heightened Def Con from 0.000159304 to 0.000159304
Heightened Def Con from 0.000159393 to 0.000159393
Heightened Def Con from 0.000159405 to 0.00015941
Heightened Def Con from 0.000160459 to 0.000160459
Heightened Def Con from 0.000160578 to 0.000160578
Heightened Def Con from 0.00016059 to 0.000160595
Heightened Def Con from 0.000161116 to 0.000161117
Heightened Def Con from 0.000161137 to 0.000161141
Heightened Def Con from 0.000161142 to 0.000161142
Heightened Def Con from 0.000161263 to 0.000161263
Heightened Def Con from 0.000161275 to 0.00016128
Heightened Def Con from 0.000161742 to 0.000161742
Heightened Def Con from 0.00016176 to 0.00016176
Heightened Def Con from 0.000161761 to 0.000161761
Heightened Def Con from 0.000161761 to 0.000161761
Heightened Def Con from 0.000161769 to 0.000161769
Heightened Def Con from 0.000161871 to 0.000161873
Heightened Def Con from 0.000161897 to 0.000161898
Heightened Def Con from 0.000161909 to 0.000161914
Heightened Def Con from 0.000161928 to 0.000161928
Heightened Def Con from 0.000161928 +to 0.000161928
Heightened Def Con from 0.000161929 +to 0.000161929
Heightened Def Con from 0.000161929 to 0.000161929
Heightened Def Con from 0.000161929 to 0.000161929
Heightened Def Con from 0.000162333 to 0.000162333
Heightened Def Con from 0.00016235 ++to 0.00016235
Heightened Def Con from 0.000162361 to 0.000162361
Heightened Def Con from 0.000162493 to 0.000162494
Heightened Def Con from 0.000162505 to 0.00016251
Heightened Def Con from 0.000162524 to 0.000162524
Heightened Def Con from 0.000162524 +to 0.000162524
Heightened Def Con from 0.000162524 to 0.000162524
Heightened Def Con from 0.000163558 to 0.000163558
Heightened Def Con from 0.000163586 to 0.000163586
Heightened Def Con from 0.000163651 to 0.000163651
Heightened Def Con from 0.000163678 to 0.000163678
Heightened Def Con from 0.00016369 to 0.000163695
Heightened Def Con from 0.000163709 to 0.000163709
Heightened Def Con from 0.000163709 ++++++++++++++++++++to 0.000163709
Heightened Def Con from 0.000163709 to 0.00016371
Heightened Def Con from 0.000165275 to 0.000165275
Heightened Def Con from 0.000165299 to 0.000165302
Heightened Def Con from 0.000165302 to 0.000165303
Heightened Def Con from 0.000165422 to 0.000165422
Heightened Def Con from 0.000165434 to 0.000165439
Heightened Def Con from 0.000165453 to 0.000165453
Heightened Def Con from 0.000165453 to 0.000165453
Heightened Def Con from 0.000165958 to 0.000165958
Heightened Def Con from 0.000165962 to 0.000165965
Heightened Def Con from 0.000165966 to 0.000165966
Heightened Def Con from 0.000166093 to 0.000166093
Heightened Def Con from 0.000166105 to 0.00016611
Heightened Def Con from 0.000166125 +to 0.000166125
Heightened Def Con from 0.000166125 to 0.000166125
Heightened Def Con from 0.000166125 to 0.000166125
Heightened Def Con from 0.000166533 to 0.000166535
Heightened Def Con from 0.000166549 to 0.000166551
Heightened Def Con from 0.000166559 to 0.000166559
Heightened Def Con from 0.000166694 to 0.000166695
Heightened Def Con from 0.000166707 to 0.000166712
Heightened Def Con from 0.000167081 to 0.000167097
Heightened Def Con from 0.000167098 to 0.000167098
Heightened Def Con from 0.000167098 to 0.000167098
Heightened Def Con from 0.000167104 to 0.000167106
Heightened Def Con from 0.000167106 to 0.000167106
Heightened Def Con from 0.000167225 to 0.000167225
Heightened Def Con from 0.000167251 to 0.000167252
Heightened Def Con from 0.000167263 to 0.000167268
Heightened Def Con from 0.000167281 to 0.000167281
Heightened Def Con from 0.000167633 to 0.000167635
Heightened Def Con from 0.000167637 to 0.000167637
Heightened Def Con from 0.00016775 to 0.000167751
Heightened Def Con from 0.000167763 to 0.000167768
Heightened Def Con from 0.000168404 to 0.000168404
Heightened Def Con from 0.000168404 to 0.000168406
Heightened Def Con from 0.000168427 to 0.00016843
Heightened Def Con from 0.000168431 to 0.000168431
Heightened Def Con from 0.000168542 to 0.000168542
Heightened Def Con from 0.000168554 to 0.000168559
Heightened Def Con from 0.000168571 +to 0.000168571
Heightened Def Con from 0.000168571 to 0.000168571
Heightened Def Con from 0.000169253 to 0.000169253
Heightened Def Con from 0.000169271 to 0.000169271
Heightened Def Con from 0.000169281 to 0.000169282
Heightened Def Con from 0.00016936 to 0.00016936
Heightened Def Con from 0.000169387 to 0.000169387
Heightened Def Con from 0.000169399 to 0.000169404
Heightened Def Con from 0.000170106 to 0.000170108
Heightened Def Con from 0.000170125 ++to 0.000170125
Heightened Def Con from 0.000170125 to 0.000170125
Heightened Def Con from 0.000170129 to 0.000170132
Heightened Def Con from 0.000170133 to 0.000170133
Heightened Def Con from 0.000170252 to 0.000170274
Heightened Def Con from 0.000170278 to 0.000170278
Heightened Def Con from 0.00017029 to 0.000170295
Heightened Def Con from 0.000170644 to 0.000170644
Heightened Def Con from 0.000170802 to 0.000170802
Heightened Def Con from 0.000170814 to 0.000170819
Heightened Def Con from 0.00017083 +to 0.00017083
Heightened Def Con from 0.00017083 to 0.00017083
Heightened Def Con from 0.00017083 to 0.00017083
Heightened Def Con from 0.000171124 ++++++++++++++++++++to 0.000171124
Heightened Def Con from 0.000171128 to 0.00017113
Heightened Def Con from 0.000171131 to 0.000171131
Heightened Def Con from 0.000171302 to 0.000171303
Heightened Def Con from 0.000171314 to 0.000171319
Heightened Def Con from 0.000171576 to 0.000171577
Heightened Def Con from 0.000171599 to 0.000171601
Heightened Def Con from 0.000171603 to 0.000171603
Heightened Def Con from 0.000171788 to 0.000171789
Heightened Def Con from 0.000171801 to 0.000171806
Heightened Def Con from 0.000172036 to 0.000172054
Heightened Def Con from 0.00017206 to 0.000172061
Heightened Def Con from 0.000172062 to 0.000172062
Heightened Def Con from 0.000172264 to 0.000172264
Heightened Def Con from 0.000172276 to 0.000172281
Heightened Def Con from 0.000172289 ++to 0.000172289
Heightened Def Con from 0.000172289 to 0.000172289
Heightened Def Con from 0.00017251 to 0.00017251
Heightened Def Con from 0.00017251 to 0.00017251
Heightened Def Con from 0.000172515 to 0.000172516
Heightened Def Con from 0.000172517 to 0.000172517
Heightened Def Con from 0.000172696 to 0.000172696
Heightened Def Con from 0.000172708 to 0.000172713
Heightened Def Con from 0.00017302 to 0.00017302
Heightened Def Con from 0.000173021 to 0.000173022
Heightened Def Con from 0.000173047 to 0.000173047
Heightened Def Con from 0.000173203 to 0.000173203
Heightened Def Con from 0.000173215 to 0.00017322
Heightened Def Con from 0.000173546 to 0.000173546
Heightened Def Con from 0.000173552 to 0.000173552
Heightened Def Con from 0.000173552 to 0.000173552
Heightened Def Con from 0.000173708 to 0.000173708
Heightened Def Con from 0.00017372 to 0.00017373
Heightened Def Con from 0.00017373 +to 0.00017373
Heightened Def Con from 0.00017373 +++to 0.00017373
Heightened Def Con from 0.00017373 to 0.00017373
Heightened Def Con from 0.000173731 to 0.000173731
Heightened Def Con from 0.000174029 to 0.000174029
Heightened Def Con from 0.000174056 to 0.000174056
Heightened Def Con from 0.000174056 to 0.000174078
Heightened Def Con from 0.000174186 to 0.000174187
Heightened Def Con from 0.000174212 to 0.000174212
Heightened Def Con from 0.000174224 to 0.000174234
Heightened Def Con from 0.000174234 to 0.000174234
Heightened Def Con from 0.000174555 to 0.000174555
Heightened Def Con from 0.000174555 to 0.000174555
Heightened Def Con from 0.000174555 to 0.000174555
Heightened Def Con from 0.000174561 to 0.000174561
Heightened Def Con from 0.000174561 to 0.000174561
Heightened Def Con from 0.000174561 to 0.000174561
Heightened Def Con from 0.000174711 to 0.000174715
Heightened Def Con from 0.000174716 to 0.000174716
Heightened Def Con from 0.000174728 to 0.000174737
Heightened Def Con from 0.000175065 to 0.000175066
Heightened Def Con from 0.000175066 to 0.000175087
Heightened Def Con from 0.000175266 to 0.00017527
Heightened Def Con from 0.000175271 to 0.000175272
Heightened Def Con from 0.000175284 to 0.000175292
Heightened Def Con from 0.000175293 to 0.000175293
Heightened Def Con from 0.000175499 to 0.000175499
Heightened Def Con from 0.000175501 to 0.000175521
Heightened Def Con from 0.000175734 to 0.000175737
Heightened Def Con from 0.000175739 to 0.000175739
Heightened Def Con from 0.000175751 to 0.000175758
Heightened Def Con from 0.000175947 to 0.000175947
Heightened Def Con from 0.000176213 to 0.000176219
Heightened Def Con from 0.000176222 to 0.000176222
Heightened Def Con from 0.000176391 to 0.000176391
Heightened Def Con from 0.000176391 to 0.000176392
Heightened Def Con from 0.000176417 to 0.000176418
Heightened Def Con from 0.000176734 to 0.000176734
Heightened Def Con from 0.000176751 to 0.000176751
Heightened Def Con from 0.000176752 to 0.000176752
Heightened Def Con from 0.000176752 to 0.000176752
Heightened Def Con from 0.00017691 to 0.00017691
Heightened Def Con from 0.000176924 +to 0.000176924
Heightened Def Con from 0.000177298 to 0.000177298
Heightened Def Con from 0.000177313 to 0.000177313
Heightened Def Con from 0.000177431 to 0.000177431
Heightened Def Con from 0.000177456 to 0.000177456
Heightened Def Con from 0.000177795 to 0.000177795
Heightened Def Con from 0.000177805 to 0.000177805
Heightened Def Con from 0.000177807 to 0.000177807
Heightened Def Con from 0.000177807 to 0.000177807
Heightened Def Con from 0.000177997 to 0.000177997
Heightened Def Con from 0.000178008 to 0.000178012
Heightened Def Con from 0.000178285 to 0.000178285
Heightened Def Con from 0.000178292 to 0.000178292
Heightened Def Con from 0.000178292 to 0.000178292
Heightened Def Con from 0.000178292 to 0.000178292
Heightened Def Con from 0.000178482 to 0.000178482
Heightened Def Con from 0.000178493 to 0.0001785
Heightened Def Con from 0.000178769 to 0.000178769
Heightened Def Con from 0.000178936 to 0.000178936
Heightened Def Con from 0.000178963 to 0.000178963
Heightened Def Con from 0.000178973 to 0.00017898
Heightened Def Con from 0.000179246 to 0.000179246
Heightened Def Con from 0.000179249 to 0.000179249
Heightened Def Con from 0.000179411 to 0.000179411
Heightened Def Con from 0.000179411 to 0.000179424
Heightened Def Con from 0.000179437 to 0.000179437
Heightened Def Con from 0.000179448 to 0.000179456
Heightened Def Con from 0.000179721 to 0.000179721
Heightened Def Con from 0.000179723 +++to 0.000179723
Heightened Def Con from 0.000179723 +to 0.000179723
Heightened Def Con from 0.000179723 to 0.000179723
Heightened Def Con from 0.000179889 to 0.000179912
Heightened Def Con from 0.000179914 to 0.000179915
Heightened Def Con from 0.000179925 to 0.00017993
Heightened Def Con from 0.000180254 to 0.000180254
Heightened Def Con from 0.000180388 to 0.000180389
Heightened Def Con from 0.000180399 to 0.000180408
Heightened Def Con from 0.000180908 to 0.000180908
Heightened Def Con from 0.000180912 to 0.00018093
Heightened Def Con from 0.000181028 to 0.000181028
Heightened Def Con from 0.000181039 to 0.00018105
Heightened Def Con from 0.000181703 to 0.000181703
Heightened Def Con from 0.000181703 +to 0.000181703
Heightened Def Con from 0.000181703 to 0.000181703
Heightened Def Con from 0.000181709 to 0.000181709
Heightened Def Con from 0.000181812 to 0.000181812
Heightened Def Con from 0.000181823 to 0.000181832
Heightened Def Con from 0.000182707 to 0.000182707
Heightened Def Con from 0.000182707 to 0.000182707
Heightened Def Con from 0.000182707 to 0.000182707
Heightened Def Con from 0.000182707 to 0.000182707
Heightened Def Con from 0.000182707 to 0.000182707
Heightened Def Con from 0.000182707 to 0.000182707
Heightened Def Con from 0.000182707 to 0.000182707
Heightened Def Con from 0.000182707 to 0.000182707
Heightened Def Con from 0.000182707 to 0.000182707
Heightened Def Con from 0.000182707 to 0.000182707
Heightened Def Con from 0.000182707 to 0.000182707
Heightened Def Con from 0.000182707 to 0.000182707
Heightened Def Con from 0.000182707 to 0.000182707
Heightened Def Con from 0.000182708 to 0.000182708
Heightened Def Con from 0.000182708 to 0.000182708
Heightened Def Con from 0.000182708 to 0.000182708
Heightened Def Con from 0.000182712 to 0.000182712
Heightened Def Con from 0.000182714 to 0.000182714
Heightened Def Con from 0.000182837 to 0.000182837
Heightened Def Con from 0.000182848 to 0.000182857
Heightened Def Con from 0.000183291 to 0.000183291
Heightened Def Con from 0.000183291 to 0.000183291
Heightened Def Con from 0.000183292 to 0.000183292
Heightened Def Con from 0.000183297 to 0.000183298
Heightened Def Con from 0.000183298 to 0.000183299
Heightened Def Con from 0.000183426 to 0.000183426
Heightened Def Con from 0.000183436 to 0.000183444
Heightened Def Con from 0.000183451 to 0.000183451
Heightened Def Con from 0.000183451 +to 0.000183451
Heightened Def Con from 0.000183451 to 0.000183451
Heightened Def Con from 0.000183451 +to 0.000183451
Heightened Def Con from 0.000183451 ++++++++++++++++++++to 0.000183451
Heightened Def Con from 0.000183862 to 0.000183862
Heightened Def Con from 0.000183862 to 0.000183862
Heightened Def Con from 0.000183862 to 0.000183862
Heightened Def Con from 0.000183863 +to 0.000183863
Heightened Def Con from 0.000183863 ++to 0.000183863
Heightened Def Con from 0.000183863 to 0.000183863
Heightened Def Con from 0.000183863 to 0.000183863
Heightened Def Con from 0.000183863 to 0.000183863
Heightened Def Con from 0.000183863 to 0.000183863
Heightened Def Con from 0.000183863 ++to 0.000183863
Heightened Def Con from 0.000183863 ++++to 0.000183863
Heightened Def Con from 0.000183863 to 0.000183863
Heightened Def Con from 0.000183868 to 0.000183869
Heightened Def Con from 0.000183869 to 0.00018387
Heightened Def Con from 0.000183974 to 0.000183974
Heightened Def Con from 0.000183974 to 0.000183974
Heightened Def Con from 0.000184001 to 0.000184001
Heightened Def Con from 0.000184011 to 0.000184022
Heightened Def Con from 0.000184416 to 0.000184416
Heightened Def Con from 0.000184416 to 0.000184416
Heightened Def Con from 0.000184417 to 0.000184417
Heightened Def Con from 0.000184417 to 0.000184417
Heightened Def Con from 0.000184417 to 0.000184417
Heightened Def Con from 0.000184417 to 0.000184417
Heightened Def Con from 0.000184417 to 0.000184417
Heightened Def Con from 0.000184417 to 0.000184417
Heightened Def Con from 0.000184424 to 0.000184424
Heightened Def Con from 0.000184534 to 0.000184534
Heightened Def Con from 0.00018456 to 0.00018456
Heightened Def Con from 0.000184571 to 0.000184581
Heightened Def Con from 0.000184585 +++to 0.000184585
Heightened Def Con from 0.000184586 to 0.000184586
Heightened Def Con from 0.000184957 to 0.000184957
Heightened Def Con from 0.000184957 to 0.000184957
Heightened Def Con from 0.000184957 to 0.000184957
Heightened Def Con from 0.000184957 to 0.000184957
Heightened Def Con from 0.000184957 to 0.000184957
Heightened Def Con from 0.000184958 +++to 0.000184958
Heightened Def Con from 0.000184958 to 0.000184958
Heightened Def Con from 0.000184962 to 0.000184963
Heightened Def Con from 0.000184964 to 0.000184964
Heightened Def Con from 0.000185102 to 0.000185102
Heightened Def Con from 0.000185113 to 0.000185123
Heightened Def Con from 0.000186186 to 0.000186186
Heightened Def Con from 0.000186186 to 0.000186186
Heightened Def Con from 0.000186192 to 0.000186193
Heightened Def Con from 0.000186194 to 0.000186194
Heightened Def Con from 0.000186257 to 0.000186257
Heightened Def Con from 0.000186283 to 0.000186283
Heightened Def Con from 0.000186294 to 0.000186305
Heightened Def Con from 0.00018786 to 0.00018786
Heightened Def Con from 0.000187861 to 0.000187861
Heightened Def Con from 0.000187861 to 0.000187861
Heightened Def Con from 0.000187861 to 0.000187861
Heightened Def Con from 0.000187861 to 0.000187861
Heightened Def Con from 0.000187861 to 0.000187861
Heightened Def Con from 0.000187861 to 0.000187861
Heightened Def Con from 0.000187861 to 0.000187861
Heightened Def Con from 0.000187861 to 0.000187861
Heightened Def Con from 0.000187861 to 0.000187861
Heightened Def Con from 0.000187861 +to 0.000187861
Heightened Def Con from 0.000187861 to 0.000187861
Heightened Def Con from 0.000187861 to 0.000187861
Heightened Def Con from 0.000187861 to 0.000187861
Heightened Def Con from 0.000187861 to 0.000187861
Heightened Def Con from 0.000187868 to 0.000187868
Heightened Def Con from 0.00018798 to 0.00018798
Heightened Def Con from 0.000187991 to 0.000188002
Heightened Def Con from 0.000188008 to 0.000188008
Heightened Def Con from 0.000188531 to 0.000188531
Heightened Def Con from 0.000188531 to 0.000188531
Heightened Def Con from 0.000188531 to 0.000188531
Heightened Def Con from 0.000188531 to 0.000188531
Heightened Def Con from 0.000188532 to 0.000188532
Heightened Def Con from 0.000188532 to 0.000188532
Heightened Def Con from 0.000188532 to 0.000188532
Heightened Def Con from 0.000188537 to 0.000188538
Heightened Def Con from 0.000188539 to 0.000188539
Heightened Def Con from 0.000188657 to 0.000188657
Heightened Def Con from 0.000188667 to 0.000188678
Heightened Def Con from 0.000189142 to 0.000189142
Heightened Def Con from 0.000189142 to 0.000189142
Heightened Def Con from 0.000189142 to 0.000189142
Heightened Def Con from 0.000189142 +to 0.000189142
Heightened Def Con from 0.000189142 to 0.000189142
Heightened Def Con from 0.000189142 to 0.000189142
Heightened Def Con from 0.000189142 to 0.000189142
Heightened Def Con from 0.000189142 to 0.000189142
Heightened Def Con from 0.000189143 to 0.000189143
Heightened Def Con from 0.00018915 to 0.00018915
Heightened Def Con from 0.000189252 to 0.000189252
Heightened Def Con from 0.000189279 to 0.000189279
Heightened Def Con from 0.000189289 to 0.0001893
Heightened Def Con from 0.000189712 to 0.000189712
Heightened Def Con from 0.000189712 to 0.000189712
Heightened Def Con from 0.000189712 to 0.000189712
Heightened Def Con from 0.000189712 to 0.000189712
Heightened Def Con from 0.000189712 ++++to 0.000189712
Heightened Def Con from 0.000189712 to 0.000189712
Heightened Def Con from 0.000189719 to 0.000189719
Heightened Def Con from 0.000189854 to 0.000189854
Heightened Def Con from 0.000189864 to 0.000189875
Heightened Def Con from 0.000190451 to 0.000190451
Heightened Def Con from 0.000190451 to 0.000190451
Heightened Def Con from 0.000190451 ++to 0.000190451
Heightened Def Con from 0.000190451 to 0.000190451
Heightened Def Con from 0.000190451 to 0.000190451
Heightened Def Con from 0.000190452 to 0.000190452
Heightened Def Con from 0.000190459 to 0.000190459
Heightened Def Con from 0.000190559 to 0.00019056
Heightened Def Con from 0.00019057 to 0.00019058
Heightened Def Con from 0.00019158 to 0.00019158
Heightened Def Con from 0.00019158 to 0.00019158
Heightened Def Con from 0.00019158 to 0.00019158
Heightened Def Con from 0.00019158 to 0.00019158
Heightened Def Con from 0.00019158 to 0.00019158
Heightened Def Con from 0.000191581 to 0.000191581
Heightened Def Con from 0.000191581 ++to 0.000191581
Heightened Def Con from 0.000191581 ++++++to 0.000191581
Heightened Def Con from 0.000191581 to 0.000191581
Heightened Def Con from 0.000191581 to 0.000191581
Heightened Def Con from 0.000191588 to 0.000191588
Heightened Def Con from 0.000191681 to 0.000191681
Heightened Def Con from 0.000191708 to 0.000191708
Heightened Def Con from 0.000191708 to 0.000191708
Heightened Def Con from 0.000192718 to 0.000192718
Heightened Def Con from 0.000192718 to 0.000192718
Heightened Def Con from 0.000192718 ++to 0.000192718
Heightened Def Con from 0.000192718 to 0.000192718
Heightened Def Con from 0.000192726 to 0.000192727
Heightened Def Con from 0.000192853 to 0.000192853
Heightened Def Con from 0.000192863 to 0.000192874
Heightened Def Con from 0.000192879 to 0.000192879
Heightened Def Con from 0.000192879 to 0.000192879
Heightened Def Con from 0.000193277 +++to 0.000193277
Heightened Def Con from 0.000193277 +to 0.000193277
Heightened Def Con from 0.000193277 to 0.000193277
Heightened Def Con from 0.000193277 +to 0.000193277
Heightened Def Con from 0.000193277 to 0.000193277
Heightened Def Con from 0.000193286 to 0.000193286
Heightened Def Con from 0.000193396 to 0.000193397
Heightened Def Con from 0.000193422 to 0.000193422
Heightened Def Con from 0.000193433 to 0.000193444
Heightened Def Con from 0.000193448 to 0.000193448
Heightened Def Con from 0.000193448 to 0.000193448
Heightened Def Con from 0.000193449 to 0.000193449
Heightened Def Con from 0.000193793 to 0.000193793
Heightened Def Con from 0.000193795 to 0.000193795
Heightened Def Con from 0.000193795 ++to 0.000193795
Heightened Def Con from 0.000193795 to 0.000193795
Heightened Def Con from 0.000193799 to 0.0001938
Heightened Def Con from 0.000193801 to 0.000193801
Heightened Def Con from 0.000193921 to 0.000193921
Heightened Def Con from 0.000193947 to 0.000193947
Heightened Def Con from 0.000193957 to 0.000193966
Heightened Def Con from 0.000194286 to 0.000194287
Heightened Def Con from 0.000194288 to 0.000194288
Heightened Def Con from 0.000194445 to 0.000194445
Heightened Def Con from 0.000194455 to 0.000194466
Heightened Def Con from 0.000194747 to 0.000194747
Heightened Def Con from 0.000194749 to 0.000194749
Heightened Def Con from 0.000194755 to 0.000194755
Heightened Def Con from 0.000194926 to 0.000194926
Heightened Def Con from 0.000194936 to 0.000194946
Heightened Def Con from 0.000194949 to 0.000194949
Heightened Def Con from 0.000194949 to 0.000194949
Heightened Def Con from 0.000194949 to 0.000194949
Heightened Def Con from 0.000195286 to 0.000195286
Heightened Def Con from 0.000195415 to 0.000195415
Heightened Def Con from 0.000195426 to 0.000195435
Heightened Def Con from 0.000195866 to 0.000195866
Heightened Def Con from 0.000195993 to 0.000195993
Heightened Def Con from 0.000196003 to 0.000196012
Heightened Def Con from 0.000196448 to 0.000196448
Heightened Def Con from 0.000196449 to 0.000196449
Heightened Def Con from 0.000196449 to 0.000196449
Heightened Def Con from 0.000196452 to 0.000196452
Heightened Def Con from 0.000196452 to 0.000196453
Heightened Def Con from 0.000196454 to 0.000196454
Heightened Def Con from 0.000196582 to 0.000196582
Heightened Def Con from 0.000196593 to 0.000196602
Heightened Def Con from 0.000196605 to 0.000196605
Heightened Def Con from 0.000196605 to 0.000196605
Heightened Def Con from 0.000197048 to 0.000197048
Heightened Def Con from 0.000197147 to 0.000197169
Heightened Def Con from 0.000197173 to 0.000197173
Heightened Def Con from 0.000197183 to 0.000197192
Heightened Def Con from 0.000197625 to 0.000197625
Heightened Def Con from 0.000197625 to 0.000197625
Heightened Def Con from 0.000197625 +++++++++++++++++++to 0.000197626
Heightened Def Con from 0.000197628 to 0.000197628
Heightened Def Con from 0.000197629 to 0.000197629
Heightened Def Con from 0.000197807 to 0.000197807
Heightened Def Con from 0.000197818 to 0.000197827
Heightened Def Con from 0.000198082 to 0.000198082
Heightened Def Con from 0.000198087 to 0.000198087
Heightened Def Con from 0.000198281 to 0.000198281
Heightened Def Con from 0.000198303 to 0.000198303
Heightened Def Con from 0.000198303 to 0.000198303
Heightened Def Con from 0.000198534 +to 0.000198534
Heightened Def Con from 0.000198534 to 0.000198534
Heightened Def Con from 0.000198536 to 0.000198536
Heightened Def Con from 0.000198537 to 0.000198558
Heightened Def Con from 0.000198748 to 0.000198748
Heightened Def Con from 0.000198759 to 0.000198767
Heightened Def Con from 0.000198984 to 0.000198985
Heightened Def Con from 0.000199196 to 0.000199209
Heightened Def Con from 0.000199221 to 0.000199221
Heightened Def Con from 0.000199232 to 0.000199239
Heightened Def Con from 0.000199241 to 0.000199241
Heightened Def Con from 0.000199441 to 0.000199441
Heightened Def Con from 0.000199445 to 0.000199462
Heightened Def Con from 0.000199705 to 0.00019971
Heightened Def Con from 0.000199711 to 0.000199711
Heightened Def Con from 0.000199721 to 0.00019973
Heightened Def Con from 0.000199915 to 0.000199915
Heightened Def Con from 0.000199919 to 0.000199919
Heightened Def Con from 0.000199919 to 0.000199919
Heightened Def Con from 0.00020018 to 0.000200185
Heightened Def Con from 0.000200186 to 0.000200186
Heightened Def Con from 0.00020045 to 0.00020045
Heightened Def Con from 0.000200463 to 0.000200463
Heightened Def Con from 0.000200463 to 0.000200463
Heightened Def Con from 0.000200463 to 0.000200463
Heightened Def Con from 0.000200663 to 0.000200668
Heightened Def Con from 0.000200669 to 0.00020067
Heightened Def Con from 0.00020068 to 0.000200685
Heightened Def Con from 0.000200897 to 0.000200897
Heightened Def Con from 0.000200925 to 0.000200925
Heightened Def Con from 0.000201117 to 0.000201117
Heightened Def Con from 0.000201137 to 0.000201143
Heightened Def Con from 0.000201144 to 0.000201144
Heightened Def Con from 0.000201404 to 0.000201404
Heightened Def Con from 0.000201623 to 0.000201628
Heightened Def Con from 0.00020163 to 0.00020163
Heightened Def Con from 0.000201645 to 0.000201645
Heightened Def Con from 0.000201887 to 0.000201887
Heightened Def Con from 0.000201903 to 0.000201903
Heightened Def Con from 0.000202103 to 0.000202109
Heightened Def Con from 0.00020211 to 0.00020211
Heightened Def Con from 0.000202366 to 0.000202366
Heightened Def Con from 0.000202563 to 0.000202563
Heightened Def Con from 0.00020259 to 0.00020259
Heightened Def Con from 0.000202782 to 0.000202782
Heightened Def Con from 0.000202799 to 0.000202799
Heightened Def Con from 0.000202799 to 0.000202799
Heightened Def Con from 0.000202799 ++to 0.000202799
Heightened Def Con from 0.000202799 to 0.000202799
Heightened Def Con from 0.000202799 to 0.000202799
Heightened Def Con from 0.000203124 to 0.000203124
Heightened Def Con from 0.000203151 to 0.000203151
Heightened Def Con from 0.000203159 to 0.000203159
Heightened Def Con from 0.000203159 +to 0.000203159
Heightened Def Con from 0.000203159 +to 0.000203159
Heightened Def Con from 0.000203159 to 0.000203159
Heightened Def Con from 0.000203287 to 0.00020329
Heightened Def Con from 0.000203308 to 0.000203314
Heightened Def Con from 0.000203315 to 0.000203315
Heightened Def Con from 0.000203739 to 0.000203739
Heightened Def Con from 0.000203739 to 0.000203739
Heightened Def Con from 0.000203739 to 0.000203739
Heightened Def Con from 0.000203743 to 0.000203743
Heightened Def Con from 0.000203854 to 0.000203856
Heightened Def Con from 0.000203881 to 0.000203881
Heightened Def Con from 0.000203893 to 0.000203901
Heightened Def Con from 0.000204367 to 0.000204367
Heightened Def Con from 0.00020439 to 0.00020439
Heightened Def Con from 0.00020439 to 0.00020439
Heightened Def Con from 0.000204396 to 0.000204396
Heightened Def Con from 0.000204398 to 0.000204418
Heightened Def Con from 0.000204512 to 0.000204516
Heightened Def Con from 0.000204517 to 0.000204517
Heightened Def Con from 0.000204529 to 0.000204538
Heightened Def Con from 0.000205144 to 0.000205144
Heightened Def Con from 0.00020515 to 0.00020515
Heightened Def Con from 0.000205151 to 0.000205151
Heightened Def Con from 0.000205269 to 0.000205269
Heightened Def Con from 0.000205296 to 0.000205296
Heightened Def Con from 0.000205308 to 0.000205313
Heightened Def Con from 0.000205321 to 0.000205321
Heightened Def Con from 0.000205652 to 0.00020567
Heightened Def Con from 0.00020567 to 0.00020567
Heightened Def Con from 0.000205676 to 0.000205676
Heightened Def Con from 0.000205677 to 0.000205677
Heightened Def Con from 0.000205824 to 0.000205824
Heightened Def Con from 0.000205836 to 0.000205841
Heightened Def Con from 0.000206194 to 0.000206194
Heightened Def Con from 0.000206203 to 0.000206203
Heightened Def Con from 0.000206324 to 0.000206324
Heightened Def Con from 0.000206326 to 0.000206326
Heightened Def Con from 0.000206352 to 0.000206352
Heightened Def Con from 0.000206364 to 0.000206369
Heightened Def Con from 0.000206377 to 0.000206377
Heightened Def Con from 0.000206377 to 0.000206377
Heightened Def Con from 0.000206377 to 0.000206377
Heightened Def Con from 0.000206697 to 0.000206698
Heightened Def Con from 0.000206715 to 0.000206715
Heightened Def Con from 0.000206715 to 0.000206715
Heightened Def Con from 0.000206721 to 0.000206724
Heightened Def Con from 0.000206724 to 0.000206725
Heightened Def Con from 0.000206845 to 0.000206845
Heightened Def Con from 0.000206872 to 0.000206873
Heightened Def Con from 0.000206884 to 0.000206889
Heightened Def Con from 0.000207233 to 0.000207233
Heightened Def Con from 0.000207386 to 0.000207386
Heightened Def Con from 0.000207398 to 0.000207403
Heightened Def Con from 0.000207412 to 0.000207412
Heightened Def Con from 0.000207413 to 0.000207413
Heightened Def Con from 0.000207413 to 0.000207413
Heightened Def Con from 0.00020786 to 0.00020786
Heightened Def Con from 0.000207861 to 0.000207861
Heightened Def Con from 0.000207879 to 0.000207879
Heightened Def Con from 0.000207879 ++++++++++++++++++++to 0.000207879
Heightened Def Con from 0.000207884 to 0.000207886
Heightened Def Con from 0.000207887 to 0.000207887
Heightened Def Con from 0.000207997 to 0.000207997
Heightened Def Con from 0.000208009 to 0.000208014
Heightened Def Con from 0.000208935 to 0.000208935
Heightened Def Con from 0.000209005 to 0.000209005
Heightened Def Con from 0.000209031 to 0.000209031
Heightened Def Con from 0.000209043 to 0.000209048
Heightened Def Con from 0.00020906 to 0.00020906
Heightened Def Con from 0.000210346 to 0.000210346
Heightened Def Con from 0.000210463 to 0.000210463
Heightened Def Con from 0.000210475 to 0.00021048
Heightened Def Con from 0.000211005 to 0.000211005
Heightened Def Con from 0.000211008 to 0.000211024
Heightened Def Con from 0.000211033 to 0.000211034
Heightened Def Con from 0.000211127 to 0.000211128
Heightened Def Con from 0.000211154 to 0.000211155
Heightened Def Con from 0.000211167 to 0.000211172
Heightened Def Con from 0.000211643 to 0.000211645
Heightened Def Con from 0.000211667 to 0.000211669
Heightened Def Con from 0.00021167 to 0.000211671
Heightened Def Con from 0.000211798 to 0.000211798
Heightened Def Con from 0.00021181 to 0.000211815
Heightened Def Con from 0.000212242 to 0.000212242
Heightened Def Con from 0.000212269 to 0.000212269
Heightened Def Con from 0.000212403 to 0.000212403
Heightened Def Con from 0.000212415 to 0.000212425
Heightened Def Con from 0.000212434 +to 0.000212434
Heightened Def Con from 0.000212434 to 0.000212434
Heightened Def Con from 0.000213293 to 0.000213295
Heightened Def Con from 0.000213297 to 0.000213297
Heightened Def Con from 0.000213392 to 0.000213392
Heightened Def Con from 0.000213404 to 0.000213409
Heightened Def Con from 0.000213423 ++++++++++++++++++++to 0.000213424
Heightened Def Con from 0.000215229 to 0.000215229
Heightened Def Con from 0.000215347 to 0.000215347
Heightened Def Con from 0.000215359 to 0.000215364
Heightened Def Con from 0.000215897 to 0.0002159
Heightened Def Con from 0.000215901 to 0.000215901
Heightened Def Con from 0.000216001 to 0.000216001
Heightened Def Con from 0.000216026 to 0.000216026
Heightened Def Con from 0.000216038 to 0.000216043
Heightened Def Con from 0.000216497 to 0.000216497
Heightened Def Con from 0.000216632 to 0.000216632
Heightened Def Con from 0.000216644 to 0.000216649
Heightened Def Con from 0.00021705 to 0.00021705
Heightened Def Con from 0.000217166 to 0.000217166
Heightened Def Con from 0.000217167 to 0.000217168
Heightened Def Con from 0.000217193 to 0.000217193
Heightened Def Con from 0.000217205 to 0.00021721
Heightened Def Con from 0.000217542 to 0.000217542
Heightened Def Con from 0.000217543 to 0.000217544
[...]
Heightened Def Con from 0.000968516 to 0.000968526
Heightened Def Con from 0.000969212 to 0.000969212
Heightened Def Con from 0.00096924 to 0.00096924
Heightened Def Con from 0.000969319 to 0.000969321
Heightened Def Con from 0.000969346 to 0.000969346
Heightened Def Con from 0.000969358 to 0.000969363
Heightened Def Con from 0.000970086 to 0.000970086
Heightened Def Con from 0.000970086 to 0.000970086
Heightened Def Con from 0.000970104 to 0.000970104
Heightened Def Con from 0.000970108 to 0.000970113
Heightened Def Con from 0.000970114 to 0.000970114
Heightened Def Con from 0.000970257 to 0.000970257
Heightened Def Con from 0.000970269 to 0.000970274
Heightened Def Con from 0.000970602 to 0.000970604
Heightened Def Con from 0.000970621 to 0.000970621
Heightened Def Con from 0.000970621 to 0.000970621
Heightened Def Con from 0.000970621 ++++++++++++++++++++to 0.000970621
Heightened Def Con from 0.000970628 to 0.000970629
Heightened Def Con from 0.000970786 to 0.000970786
Heightened Def Con from 0.000970798 to 0.000970803
Heightened Def Con from 0.00097111 to 0.00097111
Heightened Def Con from 0.00097111 to 0.00097111
Heightened Def Con from 0.000971114 to 0.000971116
Heightened Def Con from 0.000971118 to 0.000971118
Heightened Def Con from 0.000971289 to 0.000971289
Heightened Def Con from 0.000971301 to 0.000971306
Heightened Def Con from 0.000971316 to 0.000971316
Heightened Def Con from 0.000971316 to 0.000971316
Heightened Def Con from 0.000971316 to 0.000971316
Heightened Def Con from 0.00097159 to 0.00097159
Heightened Def Con from 0.000971776 to 0.000971777
Heightened Def Con from 0.000971789 to 0.000971799
Heightened Def Con from 0.000972044 to 0.000972044
Heightened Def Con from 0.000972044 to 0.000972044
Heightened Def Con from 0.000972044 to 0.000972044
Heightened Def Con from 0.000972051 to 0.000972051
Heightened Def Con from 0.000972252 to 0.000972252
Heightened Def Con from 0.000972264 to 0.000972274
Heightened Def Con from 0.000972276 to 0.000972276
Heightened Def Con from 0.000972501 to 0.000972502
Heightened Def Con from 0.000972503 to 0.000972503
Heightened Def Con from 0.000972688 to 0.000972688
Heightened Def Con from 0.0009727 to 0.00097271
Heightened Def Con from 0.000972712 to 0.000972712
Heightened Def Con from 0.000972712 to 0.000972712
Heightened Def Con from 0.000973014 to 0.000973015
Heightened Def Con from 0.000973015 to 0.000973015
Heightened Def Con from 0.000973041 to 0.000973041
Heightened Def Con from 0.000973196 to 0.000973196
Heightened Def Con from 0.000973208 to 0.000973213
Heightened Def Con from 0.000973545 to 0.000973545
Heightened Def Con from 0.000973545 to 0.000973545
Heightened Def Con from 0.000973673 to 0.000973673
Heightened Def Con from 0.0009737 to 0.0009737
Heightened Def Con from 0.000973712 to 0.000973722
Heightened Def Con from 0.00097402 to 0.000974022
Heightened Def Con from 0.000974041 to 0.000974041
Heightened Def Con from 0.000974047 to 0.000974047
Heightened Def Con from 0.000974047 to 0.000974069
Heightened Def Con from 0.000974198 to 0.000974202
Heightened Def Con from 0.000974203 to 0.000974203
Heightened Def Con from 0.000974215 to 0.000974225
Heightened Def Con from 0.000974225 to 0.000974225
Heightened Def Con from 0.000974526 to 0.000974526
Heightened Def Con from 0.000974547 to 0.000974547
Heightened Def Con from 0.000974552 to 0.000974553
Heightened Def Con from 0.000974553 to 0.000974574
Heightened Def Con from 0.000974704 to 0.000974708
Heightened Def Con from 0.00097471 to 0.00097471
Heightened Def Con from 0.000974722 to 0.000974731
Heightened Def Con from 0.000975033 to 0.000975054
Heightened Def Con from 0.000975055 to 0.000975055
Heightened Def Con from 0.00097506 to 0.00097506
Heightened Def Con from 0.000975061 to 0.000975082
Heightened Def Con from 0.000975262 to 0.000975265
Heightened Def Con from 0.000975266 to 0.000975267
Heightened Def Con from 0.000975279 to 0.000975287
Heightened Def Con from 0.000975288 to 0.000975288
Heightened Def Con from 0.00097547 to 0.00097547
Heightened Def Con from 0.000975497 to 0.000975497
Heightened Def Con from 0.000975499 to 0.000975519
Heightened Def Con from 0.000975732 to 0.000975736
Heightened Def Con from 0.000975738 to 0.000975738
Heightened Def Con from 0.00097575 to 0.000975757
Heightened Def Con from 0.000975758 to 0.000975758
Heightened Def Con from 0.000975758 to 0.000975758
Heightened Def Con from 0.000975949 to 0.000975949
Heightened Def Con from 0.000976218 to 0.000976223
Heightened Def Con from 0.000976224 to 0.000976224
Heightened Def Con from 0.00097624 to 0.00097624
Heightened Def Con from 0.00097624 to 0.00097624
Heightened Def Con from 0.00097624 ++to 0.00097624
Heightened Def Con from 0.00097624 +to 0.00097624
Heightened Def Con from 0.00097624 to 0.00097624
Heightened Def Con from 0.000976243 to 0.000976243
Heightened Def Con from 0.000976243 to 0.000976243
Heightened Def Con from 0.000976243 to 0.000976243
Heightened Def Con from 0.000976243 +++to 0.000976243
Heightened Def Con from 0.000976243 to 0.000976243
Heightened Def Con from 0.000976419 to 0.000976419
Heightened Def Con from 0.000976425 +to 0.000976425
Heightened Def Con from 0.000976425 to 0.000976425
Heightened Def Con from 0.00097673 to 0.000976735
Heightened Def Con from 0.000976736 to 0.000976736
Heightened Def Con from 0.000976912 to 0.000976912
Heightened Def Con from 0.000977298 to 0.000977298
Heightened Def Con from 0.000977456 to 0.000977456
Heightened Def Con from 0.000977472 to 0.000977472
Heightened Def Con from 0.000977472 to 0.000977472
Heightened Def Con from 0.000977788 to 0.000977789
Heightened Def Con from 0.000977961 to 0.000977974
Heightened Def Con from 0.000977987 to 0.000977987
Heightened Def Con from 0.000977998 to 0.000978002
Heightened Def Con from 0.000978271 to 0.000978271
Heightened Def Con from 0.000978278 to 0.000978278
Heightened Def Con from 0.000978278 to 0.000978278
Heightened Def Con from 0.000978278 to 0.000978278
Heightened Def Con from 0.000978439 to 0.000978462
Heightened Def Con from 0.000978465 to 0.000978465
Heightened Def Con from 0.000978475 to 0.000978483
Heightened Def Con from 0.000978752 to 0.000978753
Heightened Def Con from 0.000978949 to 0.000978949
Heightened Def Con from 0.00097896 to 0.000978967
Heightened Def Con from 0.000979236 to 0.000979236
Heightened Def Con from 0.00097943 to 0.00097943
Heightened Def Con from 0.000979441 to 0.000979449
Heightened Def Con from 0.000979449 +to 0.000979449
Heightened Def Con from 0.000979449 +to 0.000979449
Heightened Def Con from 0.000979449 to 0.000979449
Heightened Def Con from 0.000979711 to 0.000979711
Heightened Def Con from 0.000979875 to 0.000979875
Heightened Def Con from 0.000979902 to 0.000979902
Heightened Def Con from 0.000979912 to 0.000979915
Heightened Def Con from 0.000980235 to 0.000980235
Heightened Def Con from 0.000980236 to 0.000980236
Heightened Def Con from 0.000980236 to 0.000980236
Heightened Def Con from 0.000980236 to 0.000980236
Heightened Def Con from 0.000980344 to 0.000980344
Heightened Def Con from 0.000980345 to 0.000980367
Heightened Def Con from 0.00098037 to 0.00098037
Heightened Def Con from 0.000980381 to 0.00098039
Heightened Def Con from 0.00098088 ++to 0.00098088
Heightened Def Con from 0.00098088 to 0.00098088
Heightened Def Con from 0.000980882 to 0.000980882
Heightened Def Con from 0.000980885 to 0.000980903
Heightened Def Con from 0.000980974 to 0.000980998
Heightened Def Con from 0.000981001 to 0.000981001
Heightened Def Con from 0.000981011 to 0.000981022
Heightened Def Con from 0.000981662 to 0.000981662
Heightened Def Con from 0.000981662 to 0.000981662
Heightened Def Con from 0.000981662 ++++++to 0.000981662
Heightened Def Con from 0.000981662 ++++++to 0.000981662
Heightened Def Con from 0.000981662 +++++++to 0.000981662
Heightened Def Con from 0.000981662 to 0.000981662
Heightened Def Con from 0.000981662 to 0.000981662
Heightened Def Con from 0.000981662 to 0.000981662
Heightened Def Con from 0.000981663 to 0.000981663
Heightened Def Con from 0.000981663 to 0.000981663
Heightened Def Con from 0.000981663 to 0.000981663
Heightened Def Con from 0.000981663 to 0.000981663
Heightened Def Con from 0.000981663 to 0.000981663
Heightened Def Con from 0.000981663 to 0.000981663
Heightened Def Con from 0.000981663 to 0.000981663
Heightened Def Con from 0.000981664 to 0.000981664
Heightened Def Con from 0.000981664 to 0.000981664
Heightened Def Con from 0.000981668 to 0.000981669
Heightened Def Con from 0.000981772 to 0.000981772
Heightened Def Con from 0.000981783 to 0.000981792
Heightened Def Con from 0.00098269 to 0.00098269
Heightened Def Con from 0.000982692 to 0.000982692
Heightened Def Con from 0.000982692 to 0.000982692
Heightened Def Con from 0.000982692 ++++++++++++++++++++to 0.000982697
Heightened Def Con from 0.000982698 to 0.000982698
Heightened Def Con from 0.000982796 to 0.000982796
Heightened Def Con from 0.000982822 to 0.000982823
Heightened Def Con from 0.000982833 to 0.000982842
Heightened Def Con from 0.000982846 +to 0.000982846
Heightened Def Con from 0.000982846 to 0.000982846
Heightened Def Con from 0.000983262 to 0.000983262
Heightened Def Con from 0.00098328 to 0.00098328
Heightened Def Con from 0.00098328 to 0.00098328
Heightened Def Con from 0.000983281 to 0.000983281
Heightened Def Con from 0.000983281 to 0.000983281
Heightened Def Con from 0.000983281 to 0.000983281
Heightened Def Con from 0.000983282 to 0.000983282
Heightened Def Con from 0.000983282 to 0.000983282
Heightened Def Con from 0.000983282 to 0.000983282
Heightened Def Con from 0.000983286 to 0.000983289
Heightened Def Con from 0.00098329 to 0.00098329
Heightened Def Con from 0.00098339 to 0.00098339
Heightened Def Con from 0.00098339 to 0.00098339
Heightened Def Con from 0.000983416 to 0.000983416
Heightened Def Con from 0.000983427 to 0.000983435
Heightened Def Con from 0.000983832 to 0.000983832
Heightened Def Con from 0.000983858 to 0.000983859
Heightened Def Con from 0.00098386 to 0.00098386
Heightened Def Con from 0.00098399 to 0.00098399
Heightened Def Con from 0.000984 to 0.00098401
Heightened Def Con from 0.000984403 to 0.000984403
Heightened Def Con from 0.000984404 to 0.000984404
Heightened Def Con from 0.000984404 +to 0.000984404
Heightened Def Con from 0.000984404 to 0.000984404
Heightened Def Con from 0.000984409 to 0.00098441
Heightened Def Con from 0.00098441 to 0.000984411
Heightened Def Con from 0.000984545 to 0.000984545
Heightened Def Con from 0.000984556 to 0.000984566
Heightened Def Con from 0.000984942 to 0.000984942
Heightened Def Con from 0.000984942 to 0.000984942
Heightened Def Con from 0.000984943 to 0.000984943
Heightened Def Con from 0.000984943 to 0.000984943
Heightened Def Con from 0.000984943 +to 0.000984943
Heightened Def Con from 0.000984943 to 0.000984943
Heightened Def Con from 0.000984949 to 0.000984949
Heightened Def Con from 0.000985063 to 0.000985086
Heightened Def Con from 0.000985089 to 0.000985089
Heightened Def Con from 0.000985099 to 0.00098511
Heightened Def Con from 0.00098615 ++to 0.00098615
Heightened Def Con from 0.00098615 ++to 0.00098615
Heightened Def Con from 0.00098615 to 0.00098615
Heightened Def Con from 0.000986155 to 0.000986156
Heightened Def Con from 0.000986157 to 0.000986157
Heightened Def Con from 0.000986246 to 0.000986246
Heightened Def Con from 0.000986256 to 0.000986267
Heightened Def Con from 0.000987851 to 0.000987851
Heightened Def Con from 0.000987856 to 0.000987857
Heightened Def Con from 0.000987859 to 0.000987859
Heightened Def Con from 0.000987972 to 0.000987972
Heightened Def Con from 0.000987982 to 0.000987993
Heightened Def Con from 0.000988526 to 0.000988526
Heightened Def Con from 0.000988531 to 0.000988532
Heightened Def Con from 0.000988534 to 0.000988534
Heightened Def Con from 0.000988625 to 0.000988625
Heightened Def Con from 0.000988626 to 0.000988648
Heightened Def Con from 0.000988651 to 0.000988651
Heightened Def Con from 0.000988662 to 0.000988673
Heightened Def Con from 0.000989132 to 0.000989132
Heightened Def Con from 0.000989133 to 0.000989133
Heightened Def Con from 0.000989133 to 0.000989133
Heightened Def Con from 0.000989133 +++to 0.000989133
Heightened Def Con from 0.000989133 +++++to 0.000989133
Heightened Def Con from 0.000989133 +++++++++++++++++to 0.000989133
Heightened Def Con from 0.000989133 to 0.000989133
Heightened Def Con from 0.00098914 to 0.000989141
Heightened Def Con from 0.000989267 to 0.000989267
Heightened Def Con from 0.000989278 to 0.000989289
Heightened Def Con from 0.000989295 to 0.000989295
Heightened Def Con from 0.000989295 to 0.000989295
Heightened Def Con from 0.000989696 to 0.000989696
Heightened Def Con from 0.000989704 to 0.000989704
Heightened Def Con from 0.000989838 to 0.000989838
Heightened Def Con from 0.000989848 to 0.000989859
Heightened Def Con from 0.000989866 to 0.000989866
Heightened Def Con from 0.000990413 to 0.000990413
Heightened Def Con from 0.000990418 to 0.000990419
Heightened Def Con from 0.00099042 to 0.00099042
Heightened Def Con from 0.000990521 to 0.000990521
Heightened Def Con from 0.000990531 to 0.000990542
Heightened Def Con from 0.000991501 to 0.000991501
Heightened Def Con from 0.000991526 to 0.000991527
Heightened Def Con from 0.000991529 to 0.000991529
Heightened Def Con from 0.000991593 to 0.000991593
Heightened Def Con from 0.000991593 to 0.000991593
Heightened Def Con from 0.00099162 to 0.00099162
Heightened Def Con from 0.00099163 to 0.000991641
Heightened Def Con from 0.000991646 to 0.000991646
Heightened Def Con from 0.000991646 to 0.000991646
Heightened Def Con from 0.000991646 to 0.000991646
Heightened Def Con from 0.000992696 to 0.000992696
Heightened Def Con from 0.000992704 to 0.000992704
Heightened Def Con from 0.000992806 to 0.000992806
Heightened Def Con from 0.000992832 to 0.000992832
Heightened Def Con from 0.000992842 to 0.000992853
Heightened Def Con from 0.000993269 to 0.00099327
Heightened Def Con from 0.000993271 to 0.000993271
Heightened Def Con from 0.000993384 to 0.000993384
Heightened Def Con from 0.00099341 to 0.00099341
Heightened Def Con from 0.00099342 to 0.000993431
Heightened Def Con from 0.000993435 to 0.000993435
Heightened Def Con from 0.000993789 to 0.000993789
Heightened Def Con from 0.000993791 to 0.000993791
Heightened Def Con from 0.000993791 +to 0.000993791
Heightened Def Con from 0.000993791 +to 0.000993791
Heightened Def Con from 0.000993795 to 0.000993796
Heightened Def Con from 0.000993797 to 0.000993797
Heightened Def Con from 0.000993945 to 0.000993945
Heightened Def Con from 0.000993956 to 0.000993967
Heightened Def Con from 0.00099397 to 0.00099397
Heightened Def Con from 0.00099397 to 0.00099397
Heightened Def Con from 0.00099397 to 0.00099397
Heightened Def Con from 0.00099397 to 0.00099397
Heightened Def Con from 0.00099397 to 0.00099397
Heightened Def Con from 0.00099428 to 0.00099428
Heightened Def Con from 0.00099428 +to 0.00099428
Heightened Def Con from 0.00099428 to 0.00099428
Heightened Def Con from 0.00099428 to 0.00099428
Heightened Def Con from 0.00099428 to 0.00099428
Heightened Def Con from 0.00099428 to 0.00099428
Heightened Def Con from 0.00099428 to 0.00099428
Heightened Def Con from 0.00099428 to 0.00099428
Heightened Def Con from 0.000994282 to 0.000994282
Heightened Def Con from 0.000994288 to 0.000994288
Heightened Def Con from 0.000994446 to 0.000994446
Heightened Def Con from 0.000994457 to 0.000994467
Heightened Def Con from 0.000994748 to 0.000994748
Heightened Def Con from 0.000994748 to 0.000994748
Heightened Def Con from 0.000994748 to 0.000994748
Heightened Def Con from 0.000994748 to 0.000994748
Heightened Def Con from 0.000994748 +++to 0.000994748
Heightened Def Con from 0.000994748 to 0.000994748
Heightened Def Con from 0.000994748 to 0.000994748
Heightened Def Con from 0.000994748 to 0.000994748
Heightened Def Con from 0.000994748 to 0.000994748
Heightened Def Con from 0.000994748 to 0.000994748
Heightened Def Con from 0.000994751 +++to 0.000994751
Heightened Def Con from 0.000994751 to 0.000994751
Heightened Def Con from 0.000994756 to 0.000994756
Heightened Def Con from 0.0009949 to 0.0009949
Heightened Def Con from 0.000994926 to 0.000994926
Heightened Def Con from 0.000994936 to 0.000994946
Heightened Def Con from 0.000994949 to 0.000994949
Heightened Def Con from 0.000994949 to 0.000994949
Heightened Def Con from 0.000995274 to 0.000995274
Heightened Def Con from 0.000995274 ++++++++++++++++++++to 0.000995275
Heightened Def Con from 0.00099528 to 0.000995281
Heightened Def Con from 0.000995282 to 0.000995282
Heightened Def Con from 0.000995409 to 0.000995409
Heightened Def Con from 0.000995419 to 0.000995429
Heightened Def Con from 0.000995432 to 0.000995432
Heightened Def Con from 0.000995433 to 0.000995433
Heightened Def Con from 0.00099586 to 0.00099586
Heightened Def Con from 0.000995962 to 0.000995962
Heightened Def Con from 0.000995988 to 0.000995988
Heightened Def Con from 0.000995998 to 0.000996006
Heightened Def Con from 0.000996443 to 0.000996443
Heightened Def Con from 0.000996446 to 0.000996446
Heightened Def Con from 0.000996447 to 0.000996448
Heightened Def Con from 0.000996547 to 0.000996547
Heightened Def Con from 0.000996573 to 0.000996574
Heightened Def Con from 0.000996584 to 0.000996594
Heightened Def Con from 0.00099704 to 0.00099704
Heightened Def Con from 0.000997167 to 0.000997167
Heightened Def Con from 0.000997177 to 0.000997186
Heightened Def Con from 0.00099719 to 0.00099719
Heightened Def Con from 0.000997626 to 0.000997626
Heightened Def Con from 0.000997803 to 0.000997804
Heightened Def Con from 0.000997814 to 0.000997823
Heightened Def Con from 0.000998083 to 0.000998083
Heightened Def Con from 0.000998084 to 0.000998084
Heightened Def Con from 0.00099828 to 0.00099828
Heightened Def Con from 0.000998531 to 0.000998531
Heightened Def Con from 0.000998531 to 0.000998531
Heightened Def Con from 0.000998531 to 0.000998531
Heightened Def Con from 0.000998534 to 0.000998534
Heightened Def Con from 0.000998535 to 0.000998556
Heightened Def Con from 0.000998716 to 0.000998716
Heightened Def Con from 0.000998743 to 0.000998743
Heightened Def Con from 0.000998754 to 0.000998762
Heightened Def Con from 0.000998952 to 0.000998954
Heightened Def Con from 0.000998977 to 0.000998977
Heightened Def Con from 0.000998977 to 0.000998977
Heightened Def Con from 0.00099898 to 0.00099898
Heightened Def Con from 0.000998981 to 0.000999001
Heightened Def Con from 0.000999187 to 0.000999187
Heightened Def Con from 0.000999207 to 0.000999213
Heightened Def Con from 0.000999214 to 0.000999214
Heightened Def Con from 0.000999225 to 0.000999233
Heightened Def Con from 0.000999233 to 0.000999233
Heightened Def Con from 0.000999433 to 0.000999433
Heightened Def Con from 0.000999434 to 0.000999434
Heightened Def Con from 0.000999673 to 0.000999673
Heightened Def Con from 0.000999693 to 0.000999698
Heightened Def Con from 0.000999699 to 0.0009997
Heightened Def Con from 0.00099971 to 0.000999718
Heightened Def Con from 0.000999874 to 0.000999874
Heightened Def Con from 0.000999902 to 0.000999902
N-Period=all
Fourier components of V(vo)
DC component:-0.00854807

Harmonic	Frequency	 Fourier 	Normalized	 Phase  	Normalized
 Number 	  [Hz]   	Component	 Component	[degree]	Phase [deg]
    1   	 2.000e+4	 2.091e+1	 1.000e+0	  -32.30°	    0.00°
    2   	 4.000e+4	 1.888e-2	 9.031e-4	 -147.48°	 -115.18°
    3   	 6.000e+4	 3.935e-2	 1.882e-3	   98.95°	  131.25°
Total Harmonic Distortion: 0.208766%(2.228203%)



Date: Wed Apr  1 00:34:14 2020
Total elapsed time: 784.608 seconds.

tnom = 27
temp = 27
method = modified trap
totiter = 16445717
traniter = 16445717
tranpoints = 4656932
accept = 3254802
rejected = 1415956
matrix size = 314
fillins = 283
solver = Alternate
Thread vector: 33.3/19.4[6] 9.3/5.6[6] 7.7/3.7[6] 2.4/2.0[3]  2592/500
Matrix Compiler1: 35.52 KB object code size  12.4/4.3/[2.2]
Matrix Compiler2: 31.26 KB object code size  6.8/3.5/[1.7]

