Circuit: * C:\Users\Comumar\Desktop\Fiuba\Circuitos 2\NUEVO\DCE-GRUPO10\DISTORSION\OTRAS\LAZO CERRADO\Draft1.asc

.OP point found by inspection.
.step r=100
.step r=200
.step r=300
.step r=400
.step r=500
.step r=600
.step r=700
.step r=800
.step r=900
.step r=1000

Date: Thu May 28 22:51:17 2020
Total elapsed time: 0.211 seconds.

tnom = 27
temp = 27
method = modified trap
totiter = 2918
traniter = 2918
tranpoints = 1460
accept = 1292
rejected = 168
matrix size = 13
fillins = 5
Matrix Compiler1: 918 bytes object code size  0.2/0.1/[0.1]
Matrix Compiler2: 1.10 KB object code size  0.1/0.1/[0.1]

